Mass Spectrum: Benzonitrile, 3-chloro-
Formula: C7 H4 Cl N
CAS: 766-84-7
Molecular weight: 137
Origin: USAF ACADEMY, COLORADO SPRINGS, COLORADO 80840; J LLOYD PFLUG
m/z	RELATIVE INTENSITY
12	15
25	26
26	57
27	50
35	26
36	45
37	189
38	184
39	111
40	6
43	1
47	34
48	34
49	191
50	937
51	605
52	157
55	82
56	33
59	6
60	93
61	144
62	155
63	120
64	70
68	300
69	113
71	16
72	59
73	280
74	486
75	1457
76	668
77	74
84	106
85	74
86	120
87	45
88	44
97	37
98	48
99	198
100	257
101	286
102	3021
103	271
104	13
109	45
110	275
111	75
112	97
113	24
136	38
137	9999
138	781
139	3330
140	307
141	19
