Uv/Vis Spectrum: Benzoyl hydrazine
Formula: C7H8N2O
CAS: 613-94-5
Melting point: 115
Boiling point: 267 dec
Instrument: n.i.g.
Origin: INSTITUTE OF ENERGY PROBLEMS OF CHEMICAL PHYSICS, RAS
Wavelength (nm)	Logarithm epsilon
320.774	2.06398
320.361	2.10077
319.918	2.13773
319.448	2.17478
318.957	2.21186
318.449	2.24891
317.928	2.28587
317.398	2.32267
316.864	2.35926
316.329	2.39557
315.798	2.43154
315.798	2.43154
314.961	2.457
314.513	2.48906
314.382	2.51689
314.382	2.51689
314.062	2.5225
313.71	2.53288
313.177	2.55464
312.317	2.59435
310.988	2.6586
309.056	2.75397
309.056	2.75397
308.608	2.79083
308.079	2.82721
307.476	2.86314
306.813	2.89869
306.097	2.9339
305.341	2.96882
304.554	3.00351
303.746	3.03801
302.926	3.07238
302.105	3.10668
301.291	3.14094
300.494	3.17523
299.722	3.20959
299.722	3.20959
299.323	3.24217
298.632	3.27453
297.686	3.30268
297.686	3.30268
295.906	3.37515
294.391	3.43706
293.111	3.48949
292.037	3.53352
291.14	3.57022
290.395	3.60066
289.777	3.62593
289.26	3.6471
288.822	3.66524
288.439	3.68144
288.088	3.69676
287.745	3.71229
287.389	3.72909
287.389	3.72909
286.897	3.74414
285.885	3.78031
284.587	3.82807
283.23	3.87784
282.034	3.92006
281.21	3.94518
281.21	3.94518
280.085	3.99116
279.365	4.0153
278.429	4.03832
278.429	4.03832
276.394	4.10246
274.853	4.15002
273.748	4.1842
273.029	4.20817
272.647	4.22512
272.647	4.22512
271.248	4.25006
269.92	4.27649
268.644	4.30404
267.403	4.33229
266.179	4.36085
264.955	4.38934
263.716	4.41734
262.444	4.44446
262.114	4.47848
261.591	4.4782
261.335	4.47608
261.127	4.47031
261.127	4.47031
260.893	4.47289
259.449	4.49392
258.094	4.51748
256.791	4.54236
255.5	4.56735
254.186	4.59124
252.813	4.6128
251.348	4.63084
249.76	4.64412
249.76	4.64412
249.733	4.64873
249.696	4.65322
249.655	4.65749
249.655	4.65749
247.145	4.68208
245.151	4.70073
243.761	4.71443
243.064	4.72418
243.064	4.72418
241.693	4.73903
240.115	4.76989
238.831	4.79638
238.831	4.79638
237.619	4.80727
236.389	4.83198
235.223	4.86433
234.199	4.89814
233.394	4.92726
