Infrared Spectrum: 2-Propanone
Formula: C H3 C O C H3
CAS: 67-64-1
State: gas
Melting point: -95.35 C
Boiling point: 56.2 C
Class: IUPAC A
Instrument: IFS66V (Bruker)
Instrument parameters: KBr Beam splitter; MCT Detector; Multipass cell
Sampling: 1 L/min Flow
Resolution: 0.2410
Temperature: 23 C
Pressure: 101.3 kPa
Origin: NIST, Anayltical Chemistry Division, 301-975-3108
cm-1	(micromol/mol)-1m-1 (base 10)
575.048	-1.67609e-07
583.606	2.69574e-07
592.163	1.74491e-07
600.721	9.60038e-08
609.279	2.44666e-07
617.836	-2.18575e-08
626.394	2.28552e-09
634.951	-2.76581e-07
643.509	-2.15308e-07
652.067	2.06761e-07
660.624	2.96072e-08
669.182	-3.67766e-08
677.74	7.06912e-08
686.297	-2.13218e-08
694.855	-3.35771e-08
703.412	-1.6231e-07
711.97	2.96963e-08
720.528	2.99715e-07
729.085	4.95848e-07
737.643	8.24891e-07
746.201	1.58535e-06
754.758	3.28261e-06
763.316	5.19718e-06
771.873	6.05059e-06
780.431	6.01917e-06
788.989	5.85666e-06
797.546	3.85354e-06
806.104	1.34685e-06
814.662	5.03138e-07
823.219	3.86814e-07
831.777	3.9209e-07
840.334	6.64211e-07
848.892	1.03236e-06
857.45	2.18638e-06
866.007	5.33104e-06
874.565	1.20305e-05
883.123	1.4751e-05
891.68	1.86053e-05
900.238	2.34759e-05
908.795	2.09646e-05
917.353	1.5446e-05
925.911	1.07627e-05
934.468	7.19739e-06
943.026	4.74484e-06
951.584	3.85574e-06
960.141	3.77134e-06
968.699	3.58893e-06
977.256	3.1164e-06
985.814	2.8698e-06
994.372	2.28083e-06
1002.93	1.92898e-06
1011.49	1.81646e-06
1020.04	1.84676e-06
1028.6	1.63578e-06
1037.16	1.93244e-06
1045.72	2.25991e-06
1054.28	2.53024e-06
1062.83	3.11641e-06
1071.39	4.43613e-06
1079.95	5.87219e-06
1088.51	9.62641e-06
1097.06	9.51212e-06
1105.62	1.03242e-05
1114.18	1.01606e-05
1122.74	7.12868e-06
1131.29	4.41813e-06
1139.85	3.00171e-06
1148.41	2.42612e-06
1156.97	2.54477e-06
1165.52	3.97168e-06
1174.08	8.25869e-06
1182.64	2.11504e-05
1191.2	7.6751e-05
1199.75	0.000201286
1208.31	0.000252537
1216.87	0.000383522
1225.43	0.000260737
1233.99	0.000222493
1242.54	4.93552e-05
1251.1	9.34059e-06
1259.66	4.14322e-06
1268.22	3.023e-06
1276.77	2.94674e-06
1285.33	3.44936e-06
1293.89	4.58571e-06
1302.45	6.57329e-06
1311	1.00204e-05
1319.56	1.64546e-05
1328.12	3.05552e-05
1336.68	6.83667e-05
1345.23	0.000155073
1353.79	0.00023924
1362.35	0.000261417
1370.91	0.000292284
1379.46	0.000241717
1388.02	0.00011396
1396.58	5.83959e-05
1405.14	5.25192e-05
1413.7	6.18925e-05
1422.25	7.40099e-05
1430.81	7.36432e-05
1439.37	8.03963e-05
1447.93	8.01894e-05
1456.48	6.36484e-05
1465.04	4.81764e-05
1473.6	4.15731e-05
1482.16	2.57833e-05
1490.71	2.06112e-05
1499.27	1.74528e-05
1507.83	1.72251e-05
1516.39	1.63706e-05
1524.94	1.67543e-05
1533.5	1.62848e-05
1542.06	1.84994e-05
1550.62	1.45741e-05
1559.18	1.38837e-05
1567.73	1.19846e-05
1576.29	1.43702e-05
1584.85	8.22674e-06
1593.41	6.7488e-06
1601.96	5.17418e-06
1610.52	4.10727e-06
1619.08	3.48456e-06
1627.64	3.63208e-06
1636.19	3.58661e-06
1644.75	4.01365e-06
1653.31	1.14772e-05
1661.87	6.18275e-06
1670.42	8.74428e-06
1678.98	1.29105e-05
1687.54	1.91358e-05
1696.1	3.9918e-05
1704.65	9.66972e-05
1713.21	0.000228181
1721.77	0.000350316
1730.33	0.000391584
1738.89	0.000518364
1747.44	0.000438503
1756	0.00033091
1764.56	0.000218116
1773.12	0.000133106
1781.67	7.64057e-05
1790.23	5.36444e-05
1798.79	3.43413e-05
1807.35	2.14303e-05
1815.9	1.24289e-05
1824.46	7.83473e-06
1833.02	5.44792e-06
1841.58	4.24682e-06
1850.13	2.84536e-06
1858.69	2.08292e-06
1867.25	1.60972e-06
1875.81	1.37751e-06
1884.36	1.16029e-06
1892.92	8.7669e-07
1901.48	7.66631e-07
1910.04	7.13349e-07
1918.6	4.08394e-07
1927.15	3.80307e-07
1935.71	3.77164e-07
1944.27	4.08357e-07
1952.83	5.55297e-07
1961.38	7.70879e-07
1969.94	9.77482e-07
1978.5	1.12016e-06
1987.06	1.1083e-06
1995.61	1.00322e-06
2004.17	7.16046e-07
2012.73	3.0645e-07
2021.29	1.49498e-07
2029.84	1.17924e-07
2038.4	1.48709e-07
2046.96	1.80893e-07
2055.52	2.86399e-07
2064.08	4.21502e-07
2072.63	6.4032e-07
2081.19	1.15279e-06
2089.75	1.97227e-06
2098.31	2.85721e-06
2106.86	3.8415e-06
2115.42	4.86294e-06
2123.98	5.67469e-06
2132.54	5.68805e-06
2141.09	5.21806e-06
2149.65	4.56865e-06
2158.21	3.07336e-06
2166.77	1.41495e-06
2175.32	8.56067e-07
2183.88	6.04595e-07
2192.44	6.31185e-07
2201	5.7143e-07
2209.55	7.51974e-07
2218.11	9.57087e-07
2226.67	1.43976e-06
2235.23	1.82725e-06
2243.79	2.30601e-06
2252.34	2.20341e-06
2260.9	2.18282e-06
2269.46	1.66298e-06
2278.02	1.25981e-06
2286.57	9.51007e-07
2295.13	8.04822e-07
2303.69	6.61982e-07
2312.25	7.54748e-07
2320.8	6.71049e-07
2329.36	6.88966e-07
2337.92	7.51274e-07
2346.48	5.62793e-07
2355.03	4.60759e-07
2363.59	3.80837e-07
2372.15	2.33255e-07
2380.71	2.06485e-07
2389.26	1.50747e-07
2397.82	2.03296e-07
2406.38	4.64149e-07
2414.94	7.48481e-07
2423.5	9.8802e-07
2432.05	9.56607e-07
2440.61	9.84118e-07
2449.17	1.11922e-06
2457.73	4.00342e-07
2466.28	2.74657e-07
2474.84	3.00967e-07
2483.4	4.10263e-07
2491.96	4.39902e-07
2500.51	5.33134e-07
2509.07	6.10562e-07
2517.63	5.75425e-07
2526.19	6.77183e-07
2534.74	7.9228e-07
2543.3	1.15058e-06
2551.86	1.71211e-06
2560.42	2.4596e-06
2568.98	2.6566e-06
2577.53	2.51418e-06
2586.09	2.61926e-06
2594.65	1.49008e-06
2603.21	6.50274e-07
2611.76	4.24241e-07
2620.32	4.39503e-07
2628.88	4.96148e-07
2637.44	5.5397e-07
2645.99	5.5436e-07
2654.55	5.46065e-07
2663.11	4.72376e-07
2671.67	3.14144e-07
2680.22	2.62757e-07
2688.78	3.56142e-07
2697.34	3.34479e-07
2705.9	5.3114e-07
2714.45	6.22896e-07
2723.01	4.65428e-07
2731.57	4.40663e-07
2740.13	4.71755e-07
2748.69	5.52861e-07
2757.24	7.46222e-07
2765.8	1.12368e-06
2774.36	1.83802e-06
2782.92	2.2769e-06
2791.47	2.67548e-06
2800.03	3.05372e-06
2808.59	3.03976e-06
2817.15	3.09782e-06
2825.7	3.78204e-06
2834.26	5.54721e-06
2842.82	7.2473e-06
2851.38	8.51353e-06
2859.93	9.21387e-06
2868.49	9.5661e-06
2877.05	8.80139e-06
2885.61	8.59742e-06
2894.16	9.84941e-06
2902.72	1.37779e-05
2911.28	2.22167e-05
2919.84	3.28133e-05
2928.4	3.75883e-05
2936.95	4.22112e-05
2945.51	4.91066e-05
2954.07	4.54222e-05
2962.63	3.89468e-05
2971.18	9.72351e-05
2979.74	3.7849e-05
2988.3	4.54996e-05
2996.86	5.27423e-05
3005.41	5.81547e-05
3013.97	5.83149e-05
3022.53	5.64576e-05
3031.09	5.3501e-05
3039.64	3.38366e-05
3048.2	2.38949e-05
3056.76	2.16108e-05
3065.32	2.05853e-05
3073.88	1.96287e-05
3082.43	1.77278e-05
3090.99	1.52286e-05
3099.55	1.16447e-05
3108.11	8.47812e-06
3116.66	5.75519e-06
3125.22	3.95241e-06
3133.78	2.8422e-06
3142.34	2.2597e-06
3150.89	2.13732e-06
3159.45	1.83302e-06
3168.01	1.68251e-06
3176.57	1.58624e-06
3185.12	1.34321e-06
3193.68	1.17009e-06
3202.24	9.41877e-07
3210.8	8.64936e-07
3219.35	7.32902e-07
3227.91	5.78101e-07
3236.47	6.32476e-07
3245.03	6.54256e-07
3253.59	6.19004e-07
3262.14	4.6851e-07
3270.7	3.59787e-07
3279.26	3.66497e-07
3287.82	4.66513e-07
3296.37	3.76492e-07
3304.93	4.09366e-07
3313.49	4.19635e-07
3322.05	3.69704e-07
3330.6	2.77241e-07
3339.16	3.99249e-07
3347.72	3.23476e-07
3356.28	3.08547e-07
3364.83	3.73868e-07
3373.39	4.31597e-07
3381.95	5.87112e-07
3390.51	6.53819e-07
3399.06	6.72963e-07
3407.62	7.85621e-07
3416.18	1.41131e-06
3424.74	2.7566e-06
3433.3	5.70193e-06
3441.85	8.35811e-06
3450.41	9.69438e-06
3458.97	1.14761e-05
3467.53	1.05958e-05
3476.08	7.79423e-06
3484.64	4.88528e-06
3493.2	3.11687e-06
3501.76	2.29291e-06
3510.31	1.14371e-06
3518.87	7.3142e-07
3527.43	4.26568e-07
3535.99	2.82283e-07
3544.54	5.13429e-08
3553.1	6.87721e-08
3561.66	5.31073e-08
3570.22	1.69891e-08
3578.78	-1.48092e-07
3587.33	-7.22127e-10
3595.89	6.67995e-08
3604.45	-1.46945e-08
3613.01	2.07915e-07
3621.56	2.552e-08
3630.12	2.71727e-07
3638.68	1.165e-07
3647.24	9.26565e-07
3655.79	3.53271e-07
3664.35	8.91099e-08
3672.91	1.27356e-07
3681.47	1.21185e-07
3690.02	2.57511e-07
3698.58	2.01229e-07
3707.14	2.27125e-07
3715.7	2.25495e-07
3724.25	3.64235e-07
3732.81	4.22101e-07
3741.37	8.03194e-07
3749.93	9.11443e-07
3758.49	3.9814e-07
3767.04	4.27995e-07
3775.6	4.11219e-07
3784.16	6.08256e-07
3792.72	6.13648e-07
3801.27	3.81016e-06
3809.83	7.98463e-07
3818.39	8.14267e-07
3826.95	1.07506e-06
3835.5	6.92131e-07
3844.06	6.60216e-07
3852.62	7.49425e-07
3861.18	3.73435e-07
3869.73	6.55206e-07
3878.29	2.89433e-07
3886.85	2.86084e-07
3895.41	3.66833e-07
3903.96	1.12013e-06
3912.52	5.60282e-07
3921.08	6.52455e-07
3929.64	6.91283e-07
3938.2	7.17467e-07
3946.75	6.42854e-07
3955.31	7.71124e-07
3963.87	7.80874e-07
3972.43	1.01558e-06
