Infrared Spectrum: 2-Propanone
Formula: C H3 C O C H3
CAS: 67-64-1
State: gas
Melting point: -95.35 C
Boiling point: 56.2 C
Class: IUPAC A
Instrument: IFS66V (Bruker)
Instrument parameters: KBr Beam splitter; MCT Detector; Multipass cell
Sampling: 1 L/min Flow
Resolution: 0.9640
Temperature: 23 C
Pressure: 101.3 kPa
Origin: NIST, Anayltical Chemistry Division, 301-975-3108
cm-1	(micromol/mol)-1m-1 (base 10)
575.169	2.13102e-07
583.847	1.3709e-07
592.525	2.20101e-07
601.203	6.72215e-08
609.882	3.34143e-08
618.56	-3.72077e-08
627.238	1.28655e-08
635.916	-3.03321e-08
644.594	1.77385e-08
653.272	-4.52921e-08
661.951	-6.59e-08
670.629	-9.62394e-08
679.307	-8.58695e-08
687.985	-5.96337e-08
696.663	-7.28039e-08
705.341	7.21527e-08
714.019	6.69259e-08
722.698	2.59426e-07
731.376	5.05176e-07
740.054	9.93864e-07
748.732	2.04632e-06
757.41	3.81456e-06
766.088	5.49507e-06
774.767	5.86751e-06
783.445	5.83198e-06
792.123	5.34065e-06
800.801	2.75677e-06
809.479	1.0319e-06
818.157	4.38564e-07
826.835	4.06392e-07
835.514	4.92889e-07
844.192	7.57591e-07
852.87	1.36449e-06
861.548	3.23117e-06
870.226	8.18487e-06
878.904	1.34684e-05
887.583	1.97167e-05
896.261	2.27765e-05
904.939	2.21481e-05
913.617	1.81759e-05
922.295	1.24779e-05
930.973	8.50551e-06
939.651	5.52404e-06
948.33	4.08385e-06
957.008	3.73831e-06
965.686	3.42644e-06
974.364	3.22723e-06
983.042	3.00543e-06
991.72	2.54646e-06
1000.4	2.18739e-06
1009.08	1.75889e-06
1017.75	1.67214e-06
1026.43	1.6017e-06
1035.11	1.79538e-06
1043.79	2.17676e-06
1052.47	2.44721e-06
1061.15	2.95075e-06
1069.82	4.14554e-06
1078.5	5.74613e-06
1087.18	8.2524e-06
1095.86	1.00781e-05
1104.54	1.0151e-05
1113.21	1.04077e-05
1121.89	7.52816e-06
1130.57	4.59553e-06
1139.25	3.05444e-06
1147.93	2.40724e-06
1156.61	2.54267e-06
1165.28	3.92218e-06
1173.96	8.13307e-06
1182.64	2.11591e-05
1191.32	7.79165e-05
1200	0.000205226
1208.67	0.000250142
1217.35	0.000389285
1226.03	0.000269036
1234.71	0.000205119
1243.39	4.09406e-05
1252.07	8.22601e-06
1260.74	3.91302e-06
1269.42	2.99261e-06
1278.1	3.00853e-06
1286.78	3.70328e-06
1295.46	4.79074e-06
1304.13	7.09244e-06
1312.81	1.10861e-05
1321.49	1.86666e-05
1330.17	3.64266e-05
1338.85	8.51518e-05
1347.52	0.000183549
1356.2	0.00023968
1364.88	0.000338964
1373.56	0.000284823
1382.24	0.000201578
1390.92	8.5372e-05
1399.59	5.40381e-05
1408.27	5.47953e-05
1416.95	6.6442e-05
1425.63	7.59396e-05
1434.31	8.43876e-05
1442.98	7.82888e-05
1451.66	6.78728e-05
1460.34	5.39544e-05
1469.02	4.13347e-05
1477.7	3.28985e-05
1486.38	2.20765e-05
1495.05	1.81911e-05
1503.73	1.66987e-05
1512.41	1.66333e-05
1521.09	1.83368e-05
1529.77	1.61203e-05
1538.44	1.66991e-05
1547.12	1.49585e-05
1555.8	1.39059e-05
1564.48	1.29687e-05
1573.16	1.07098e-05
1581.83	8.79227e-06
1590.51	7.30834e-06
1599.19	5.64663e-06
1607.87	4.39201e-06
1616.55	5.80618e-06
1625.23	3.29734e-06
1633.9	3.27793e-06
1642.58	3.80552e-06
1651.26	5.01874e-06
1659.94	5.93753e-06
1668.62	8.74921e-06
1677.29	1.19108e-05
1685.97	1.7672e-05
1694.65	3.21018e-05
1703.33	8.30069e-05
1712.01	0.000206641
1720.69	0.000338456
1729.36	0.000397493
1738.04	0.000515782
1746.72	0.000448349
1755.4	0.000340957
1764.08	0.000225683
1772.75	0.000133781
1781.43	7.71718e-05
1790.11	5.41165e-05
1798.79	3.43491e-05
1807.47	2.12877e-05
1816.15	1.22431e-05
1824.82	7.97231e-06
1833.5	5.3605e-06
1842.18	4.23839e-06
1850.86	2.7106e-06
1859.54	1.96632e-06
1868.21	1.73192e-06
1876.89	1.33062e-06
1885.57	1.12995e-06
1894.25	8.97087e-07
1902.93	7.17538e-07
1911.6	4.89595e-07
1920.28	3.55277e-07
1928.96	3.57299e-07
1937.64	3.98335e-07
1946.32	4.81717e-07
1955	6.28638e-07
1963.67	8.2789e-07
1972.35	1.01493e-06
1981.03	1.14433e-06
1989.71	1.01967e-06
1998.39	8.74273e-07
2007.06	5.70593e-07
2015.74	2.15334e-07
2024.42	1.45564e-07
2033.1	1.56216e-07
2041.78	1.86002e-07
2050.46	2.14591e-07
2059.13	3.34515e-07
2067.81	4.8483e-07
2076.49	8.22517e-07
2085.17	1.49012e-06
2093.85	2.4402e-06
2102.52	3.0837e-06
2111.2	4.2038e-06
2119.88	5.36857e-06
2128.56	5.70375e-06
2137.24	5.48158e-06
2145.91	5.27302e-06
2154.59	3.82497e-06
2163.27	1.993e-06
2171.95	9.3572e-07
2180.63	6.79698e-07
2189.31	5.48114e-07
2197.98	5.87947e-07
2206.66	6.4828e-07
2215.34	8.92799e-07
2224.02	1.25012e-06
2232.7	1.75656e-06
2241.37	2.09801e-06
2250.05	2.10049e-06
2258.73	2.24355e-06
2267.41	1.80034e-06
2276.09	1.34999e-06
2284.77	1.00481e-06
2293.44	8.27368e-07
2302.12	6.89788e-07
2310.8	7.20018e-07
2319.48	7.37369e-07
2328.16	7.97498e-07
2336.83	6.41044e-07
2345.51	6.33186e-07
2354.19	5.86359e-07
2362.87	6.22216e-07
2371.55	3.60918e-07
2380.23	1.79905e-07
2388.9	1.38072e-07
2397.58	2.51359e-07
2406.26	4.84425e-07
2414.94	7.37351e-07
2423.62	9.70842e-07
2432.29	9.91528e-07
2440.97	9.87743e-07
2449.65	1.10534e-06
2458.33	3.52452e-07
2467.01	2.82242e-07
2475.68	2.79408e-07
2484.36	3.75653e-07
2493.04	4.69272e-07
2501.72	5.4499e-07
2510.4	6.37316e-07
2519.08	5.99503e-07
2527.75	6.63494e-07
2536.43	8.71483e-07
2545.11	1.19433e-06
2553.79	1.91837e-06
2562.47	2.54527e-06
2571.14	2.77068e-06
2579.82	2.5023e-06
2588.5	2.45579e-06
2597.18	1.17232e-06
2605.86	5.45921e-07
2614.54	4.63658e-07
2623.21	4.61306e-07
2631.89	5.08201e-07
2640.57	5.86296e-07
2649.25	5.65293e-07
2657.93	5.31961e-07
2666.6	4.25633e-07
2675.28	3.06873e-07
2683.96	3.39872e-07
2692.64	3.58834e-07
2701.32	3.85392e-07
2709.99	5.27282e-07
2718.67	5.4382e-07
2727.35	4.63873e-07
2736.03	4.59742e-07
2744.71	5.10933e-07
2753.39	6.36765e-07
2762.06	9.67474e-07
2770.74	1.47384e-06
2779.42	2.15641e-06
2788.1	2.5427e-06
2796.78	3.01009e-06
2805.45	3.0335e-06
2814.13	3.0991e-06
2822.81	3.51523e-06
2831.49	4.8881e-06
2840.17	6.86629e-06
2848.85	8.14838e-06
2857.52	9.13169e-06
2866.2	9.6806e-06
2874.88	8.96045e-06
2883.56	8.49391e-06
2892.24	9.60257e-06
2900.91	1.26296e-05
2909.59	1.99801e-05
2918.27	3.12639e-05
2926.95	3.7005e-05
2935.63	3.98816e-05
2944.31	4.87711e-05
2952.98	4.62818e-05
2961.66	3.88687e-05
2970.34	0.000126998
2979.02	3.77145e-05
2987.7	4.50794e-05
2996.37	5.24031e-05
3005.05	5.82252e-05
3013.73	5.79354e-05
3022.41	5.64049e-05
3031.09	5.35702e-05
3039.76	3.35678e-05
3048.44	2.3776e-05
3057.12	2.15806e-05
3065.8	2.04935e-05
3074.48	1.94918e-05
3083.16	1.75098e-05
3091.83	1.47876e-05
3100.51	1.12948e-05
3109.19	8.20723e-06
3117.87	5.49976e-06
3126.55	3.73031e-06
3135.22	2.76199e-06
3143.9	2.23164e-06
3152.58	2.0654e-06
3161.26	1.78178e-06
3169.94	1.68753e-06
3178.62	1.52212e-06
3187.29	1.27513e-06
3195.97	1.11008e-06
3204.65	9.0493e-07
3213.33	7.51534e-07
3222.01	7.1526e-07
3230.68	6.63483e-07
3239.36	5.85596e-07
3248.04	5.24697e-07
3256.72	5.2235e-07
3265.4	4.55318e-07
3274.07	4.29566e-07
3282.75	4.67401e-07
3291.43	5.00837e-07
3300.11	5.23778e-07
3308.79	4.88663e-07
3317.47	4.69726e-07
3326.14	3.83178e-07
3334.82	3.33056e-07
3343.5	2.68685e-07
3352.18	2.75806e-07
3360.86	2.45621e-07
3369.53	3.06859e-07
3378.21	5.69169e-07
3386.89	6.58393e-07
3395.57	6.20544e-07
3404.25	7.0727e-07
3412.93	9.95117e-07
3421.6	2.08115e-06
3430.28	4.53921e-06
3438.96	7.60733e-06
3447.64	9.8202e-06
3456.32	1.16738e-05
3464.99	1.11101e-05
3473.67	8.74463e-06
3482.35	5.65962e-06
3491.03	3.51996e-06
3499.71	2.39857e-06
3508.39	1.46186e-06
3517.06	7.49777e-07
3525.74	4.97438e-07
3534.42	1.95646e-07
3543.1	1.60629e-07
3551.78	1.36362e-07
3560.45	1.1407e-07
3569.13	4.5082e-08
3577.81	-8.08892e-08
3586.49	4.24549e-07
3595.17	1.4072e-07
3603.84	-2.67542e-08
3612.52	5.90718e-07
3621.2	1.56512e-07
3629.88	1.16278e-06
3638.56	1.28521e-07
3647.24	7.82023e-07
3655.91	7.82318e-07
3664.59	8.44343e-08
3673.27	1.56189e-07
3681.95	1.4252e-07
3690.63	5.05324e-07
3699.3	2.44899e-07
3707.98	2.48234e-07
3716.66	2.84577e-07
3725.34	4.25843e-07
3734.02	5.71861e-07
3742.7	4.17493e-07
3751.37	8.2726e-07
3760.05	9.08745e-07
3768.73	4.82321e-07
3777.41	5.06259e-07
3786.09	5.7036e-07
3794.76	6.71123e-07
3803.44	9.1761e-07
3812.12	7.71243e-07
3820.8	1.63924e-06
3829.48	6.65516e-07
3838.16	2.47289e-06
3846.83	4.6413e-07
3855.51	5.26452e-07
3864.19	5.82984e-07
3872.87	3.53791e-07
3881.55	4.20083e-07
3890.22	3.63355e-07
3898.9	8.4184e-07
3907.58	4.8263e-07
3916.26	6.78236e-07
3924.94	8.39046e-07
3933.61	6.78769e-07
3942.29	7.65006e-07
3950.97	6.78523e-07
3959.65	7.38279e-07
3968.33	8.59519e-07
