Infrared Spectrum: 2-Propanone
Formula: C H3 C O C H3
CAS: 67-64-1
State: gas
Melting point: -95.35 C
Boiling point: 56.2 C
Class: IUPAC A
Instrument: IFS66V (Bruker)
Instrument parameters: KBr Beam splitter; MCT Detector; Multipass cell
Sampling: 1 L/min Flow
Resolution: 0.4820
Temperature: 23 C
Pressure: 101.3 kPa
Origin: NIST, Anayltical Chemistry Division, 301-975-3108
cm-1	(micromol/mol)-1m-1 (base 10)
574.928	1.91928e-08
583.606	2.51494e-07
592.284	9.31126e-08
600.962	1.67854e-07
609.641	-4.63935e-08
618.319	-2.26297e-08
626.997	6.26077e-08
635.675	-1.02609e-07
644.353	4.46718e-08
653.031	-5.0668e-08
661.71	-1.31658e-07
670.388	-3.44311e-08
679.066	-8.70927e-08
687.744	-8.06681e-08
696.422	-3.84146e-08
705.1	6.19374e-08
713.778	6.28287e-08
722.457	2.23986e-07
731.135	5.71202e-07
739.813	9.68774e-07
748.491	2.0103e-06
757.169	3.76001e-06
765.847	5.42651e-06
774.526	5.91059e-06
783.204	5.73973e-06
791.882	5.41146e-06
800.56	2.85454e-06
809.238	1.06537e-06
817.916	4.38736e-07
826.594	4.2273e-07
835.273	4.55742e-07
843.951	7.4168e-07
852.629	1.31972e-06
861.307	3.14553e-06
869.985	7.98998e-06
878.663	1.35732e-05
887.342	2.02069e-05
896.02	2.28328e-05
904.698	2.22071e-05
913.376	1.83224e-05
922.054	1.25925e-05
930.732	8.6237e-06
939.41	5.58838e-06
948.089	4.11573e-06
956.767	3.73931e-06
965.445	3.4435e-06
974.123	3.23446e-06
982.801	3.03288e-06
991.479	2.58516e-06
1000.16	2.19938e-06
1008.84	1.78364e-06
1017.51	1.68987e-06
1026.19	1.61838e-06
1034.87	1.7833e-06
1043.55	2.16328e-06
1052.23	2.43869e-06
1060.9	2.92329e-06
1069.58	4.10593e-06
1078.26	5.67721e-06
1086.94	7.9678e-06
1095.62	1.021e-05
1104.3	1.00729e-05
1112.97	1.04566e-05
1121.65	7.60449e-06
1130.33	4.64095e-06
1139.01	3.10793e-06
1147.69	2.39612e-06
1156.36	2.54926e-06
1165.04	3.86244e-06
1173.72	7.9209e-06
1182.4	2.04667e-05
1191.08	7.54222e-05
1199.76	0.000201427
1208.43	0.000251627
1217.11	0.000387798
1225.79	0.000265823
1234.47	0.000211133
1243.15	4.30614e-05
1251.82	8.4702e-06
1260.5	4.00575e-06
1269.18	3.01291e-06
1277.86	2.99653e-06
1286.54	3.67296e-06
1295.21	4.76255e-06
1303.89	7.03986e-06
1312.57	1.09999e-05
1321.25	1.83494e-05
1329.93	3.56144e-05
1338.61	8.31389e-05
1347.28	0.000180518
1355.96	0.00024094
1364.64	0.000299978
1373.32	0.00028571
1382	0.000205937
1390.67	8.72026e-05
1399.35	5.46086e-05
1408.03	5.43465e-05
1416.71	6.60011e-05
1425.39	7.58877e-05
1434.07	8.39576e-05
1442.74	7.85988e-05
1451.42	6.86202e-05
1460.1	5.42294e-05
1468.78	4.15841e-05
1477.46	3.31769e-05
1486.13	2.22679e-05
1494.81	1.8221e-05
1503.49	1.672e-05
1512.17	1.68907e-05
1520.85	1.70889e-05
1529.52	1.61449e-05
1538.2	1.61066e-05
1546.88	1.4971e-05
1555.56	1.39602e-05
1564.24	1.28395e-05
1572.92	1.07687e-05
1581.59	8.84293e-06
1590.27	7.34862e-06
1598.95	5.68263e-06
1607.63	4.42121e-06
1616.31	4.57689e-06
1624.98	3.33052e-06
1633.66	3.25583e-06
1642.34	3.78289e-06
1651.02	4.87131e-06
1659.7	5.93382e-06
1668.38	8.65156e-06
1677.05	1.17699e-05
1685.73	1.74483e-05
1694.41	3.13472e-05
1703.09	8.07199e-05
1711.77	0.000202354
1720.44	0.000335785
1729.12	0.000398941
1737.8	0.000514902
1746.48	0.000451457
1755.16	0.000344988
1763.84	0.000229512
1772.51	0.000133958
1781.19	7.78273e-05
1789.87	5.4794e-05
1798.55	3.48044e-05
1807.23	2.15583e-05
1815.9	1.24151e-05
1824.58	7.81551e-06
1833.26	5.40506e-06
1841.94	4.24026e-06
1850.62	2.7373e-06
1859.29	1.97045e-06
1867.97	1.88466e-06
1876.65	1.33988e-06
1885.33	1.134e-06
1894.01	9.06178e-07
1902.69	7.16794e-07
1911.36	4.9518e-07
1920.04	3.49299e-07
1928.72	3.63465e-07
1937.4	4.01846e-07
1946.08	4.79611e-07
1954.75	6.13112e-07
1963.43	8.20039e-07
1972.11	9.99462e-07
1980.79	1.16113e-06
1989.47	1.01898e-06
1998.15	8.81608e-07
2006.82	5.8092e-07
2015.5	2.1757e-07
2024.18	1.31876e-07
2032.86	1.71404e-07
2041.54	1.87943e-07
2050.21	2.29318e-07
2058.89	3.36641e-07
2067.57	4.67632e-07
2076.25	8.14839e-07
2084.93	1.46198e-06
2093.6	2.44621e-06
2102.28	3.06755e-06
2110.96	4.14909e-06
2119.64	5.34661e-06
2128.32	5.69619e-06
2137	5.49868e-06
2145.67	5.43185e-06
2154.35	3.86109e-06
2163.03	2.0286e-06
2171.71	9.56422e-07
2180.39	7.08239e-07
2189.06	5.26162e-07
2197.74	5.85249e-07
2206.42	6.3487e-07
2215.1	8.94092e-07
2223.78	1.23077e-06
2232.46	1.74796e-06
2241.13	2.08975e-06
2249.81	2.09594e-06
2258.49	2.26257e-06
2267.17	1.82004e-06
2275.85	1.37596e-06
2284.52	1.02123e-06
2293.2	8.35722e-07
2301.88	6.69804e-07
2310.56	7.1531e-07
2319.24	8.35791e-07
2327.92	7.31512e-07
2336.59	6.12981e-07
2345.27	5.65414e-07
2353.95	4.47224e-07
2362.63	7.01733e-07
2371.31	4.22004e-07
2379.98	1.79909e-07
2388.66	1.37733e-07
2397.34	2.54404e-07
2406.02	4.91171e-07
2414.7	7.401e-07
2423.37	9.75111e-07
2432.05	9.70613e-07
2440.73	9.77123e-07
2449.41	1.12602e-06
2458.09	3.78539e-07
2466.77	2.90759e-07
2475.44	2.73605e-07
2484.12	3.71652e-07
2492.8	4.64029e-07
2501.48	5.32784e-07
2510.16	6.53244e-07
2518.83	6.26125e-07
2527.51	6.35981e-07
2536.19	8.65023e-07
2544.87	1.17237e-06
2553.55	1.89111e-06
2562.23	2.54755e-06
2570.9	2.77763e-06
2579.58	2.51056e-06
2588.26	2.46094e-06
2596.94	1.20751e-06
2605.62	5.47499e-07
2614.29	4.76448e-07
2622.97	4.53817e-07
2631.65	5.05564e-07
2640.33	5.82123e-07
2649.01	5.79618e-07
2657.68	5.51775e-07
2666.36	4.06172e-07
2675.04	3.19008e-07
2683.72	3.45453e-07
2692.4	3.61535e-07
2701.08	3.56582e-07
2709.75	5.24543e-07
2718.43	5.4268e-07
2727.11	4.64248e-07
2735.79	4.48039e-07
2744.47	5.04031e-07
2753.14	6.11622e-07
2761.82	9.53673e-07
2770.5	1.44283e-06
2779.18	2.16813e-06
2787.86	2.55373e-06
2796.54	2.96616e-06
2805.21	3.02759e-06
2813.89	3.05948e-06
2822.57	3.46621e-06
2831.25	4.8289e-06
2839.93	6.8102e-06
2848.6	8.10931e-06
2857.28	9.10542e-06
2865.96	9.71282e-06
2874.64	8.97675e-06
2883.32	8.47789e-06
2892	9.48422e-06
2900.67	1.24935e-05
2909.35	1.96685e-05
2918.03	3.10039e-05
2926.71	3.69488e-05
2935.39	3.94691e-05
2944.06	4.86257e-05
2952.74	4.63999e-05
2961.42	3.88733e-05
2970.1	0.000137502
2978.78	3.77169e-05
2987.45	4.48794e-05
2996.13	5.22097e-05
3004.81	5.8266e-05
3013.49	5.75127e-05
3022.17	5.63503e-05
3030.85	5.40266e-05
3039.52	3.4092e-05
3048.2	2.39032e-05
3056.88	2.16061e-05
3065.56	2.0564e-05
3074.24	1.95504e-05
3082.91	1.7574e-05
3091.59	1.49407e-05
3100.27	1.13623e-05
3108.95	8.28862e-06
3117.63	5.60659e-06
3126.31	3.79668e-06
3134.98	2.79858e-06
3143.66	2.23907e-06
3152.34	2.02065e-06
3161.02	1.76699e-06
3169.7	1.67964e-06
3178.37	1.5403e-06
3187.05	1.30289e-06
3195.73	1.09015e-06
3204.41	9.21689e-07
3213.09	7.71351e-07
3221.77	7.07514e-07
3230.44	6.68651e-07
3239.12	6.05214e-07
3247.8	5.14587e-07
3256.48	5.19271e-07
3265.16	4.83216e-07
3273.83	4.40809e-07
3282.51	4.27559e-07
3291.19	5.02756e-07
3299.87	5.38395e-07
3308.55	4.43685e-07
3317.22	4.43175e-07
3325.9	3.81455e-07
3334.58	3.10384e-07
3343.26	2.37888e-07
3351.94	2.76416e-07
3360.62	2.38399e-07
3369.29	2.23018e-07
3377.97	5.11178e-07
3386.65	6.6664e-07
3395.33	6.19659e-07
3404.01	6.95628e-07
3412.68	9.61349e-07
3421.36	1.96255e-06
3430.04	4.44542e-06
3438.72	7.55708e-06
3447.4	9.80344e-06
3456.08	1.16901e-05
3464.75	1.11533e-05
3473.43	8.8285e-06
3482.11	5.75946e-06
3490.79	3.50879e-06
3499.47	2.40022e-06
3508.14	1.43044e-06
3516.82	7.64536e-07
3525.5	5.38857e-07
3534.18	1.84001e-07
3542.86	1.77737e-07
3551.53	9.13464e-08
3560.21	1.77031e-07
3568.89	4.1566e-08
3577.57	-4.76931e-08
3586.25	3.03919e-07
3594.93	-3.73432e-09
3603.6	-3.85456e-08
3612.28	4.80805e-07
3620.96	1.88299e-07
3629.64	2.24635e-06
3638.32	1.42191e-07
3646.99	6.86116e-07
3655.67	2.76456e-07
3664.35	8.96274e-08
3673.03	1.43983e-07
3681.71	1.36199e-07
3690.39	3.89141e-07
3699.06	2.40175e-07
3707.74	2.04106e-07
3716.42	2.81063e-07
3725.1	5.58326e-07
3733.78	4.43793e-07
3742.45	3.7623e-07
3751.13	6.3736e-07
3759.81	1.26092e-06
3768.49	4.6376e-07
3777.17	4.84575e-07
3785.85	5.6279e-07
3794.52	6.54596e-07
3803.2	9.89988e-07
3811.88	7.15e-07
3820.56	1.74953e-06
3829.24	6.86005e-07
3837.91	4.40521e-06
3846.59	4.66064e-07
3855.27	5.50105e-07
3863.95	4.56973e-07
3872.63	3.83207e-07
3881.3	4.80354e-07
3889.98	3.62156e-07
3898.66	5.02761e-07
3907.34	4.73684e-07
3916.02	5.7486e-07
3924.7	7.3237e-07
3933.37	6.88368e-07
3942.05	6.64558e-07
3950.73	6.4359e-07
3959.41	7.34373e-07
3968.09	8.45093e-07
