Infrared Spectrum: 2-Propanone
Formula: C H3 C O C H3
CAS: 67-64-1
State: gas
Melting point: -95.35 C
Boiling point: 56.2 C
Class: IUPAC A
Instrument: IFS66V (Bruker)
Instrument parameters: KBr Beam splitter; MCT Detector; Multipass cell
Sampling: 1 L/min Flow
Resolution: 0.2410
Temperature: 23 C
Pressure: 101.3 kPa
Origin: NIST, Anayltical Chemistry Division, 301-975-3108
cm-1	(micromol/mol)-1m-1 (base 10)
575.048	-9.25259e-08
583.606	2.56603e-07
592.163	1.80711e-07
600.721	1.09636e-07
609.279	2.14747e-07
617.836	-2.05124e-08
626.394	7.17944e-09
634.951	-2.4396e-07
643.509	-1.99833e-07
652.067	1.8942e-07
660.624	1.89181e-08
669.182	-2.88442e-08
677.74	6.18265e-08
686.297	-1.74065e-08
694.855	-2.78192e-08
703.412	-1.48053e-07
711.97	4.09311e-08
720.528	2.92163e-07
729.085	4.93195e-07
737.643	8.29181e-07
746.201	1.59413e-06
754.758	3.281e-06
763.316	5.19414e-06
771.873	6.04471e-06
780.431	6.02162e-06
788.989	5.85322e-06
797.546	3.86323e-06
806.104	1.36613e-06
814.662	5.15093e-07
823.219	3.9583e-07
831.777	4.06261e-07
840.334	6.71275e-07
848.892	1.04397e-06
857.45	2.19794e-06
866.007	5.34505e-06
874.565	1.20231e-05
883.123	1.47496e-05
891.68	1.86318e-05
900.238	2.34344e-05
908.795	2.09367e-05
917.353	1.54405e-05
925.911	1.07577e-05
934.468	7.2026e-06
943.026	4.76218e-06
951.584	3.87037e-06
960.141	3.7719e-06
968.699	3.59358e-06
977.256	3.12424e-06
985.814	2.87756e-06
994.372	2.29005e-06
1002.93	1.93676e-06
1011.49	1.82344e-06
1020.04	1.84217e-06
1028.6	1.64479e-06
1037.16	1.94438e-06
1045.72	2.26635e-06
1054.28	2.53891e-06
1062.83	3.13036e-06
1071.39	4.44963e-06
1079.95	5.89427e-06
1088.51	9.68325e-06
1097.06	9.56154e-06
1105.62	1.03348e-05
1114.18	1.01697e-05
1122.74	7.14977e-06
1131.29	4.45099e-06
1139.85	3.04e-06
1148.41	2.47185e-06
1156.97	2.6069e-06
1165.52	4.05929e-06
1174.08	8.3839e-06
1182.64	2.13707e-05
1191.2	7.69122e-05
1199.75	0.000200978
1208.31	0.000252181
1216.87	0.000380841
1225.43	0.000260299
1233.99	0.000221976
1242.54	4.97605e-05
1251.1	9.5787e-06
1259.66	4.28183e-06
1268.22	3.11872e-06
1276.77	3.02383e-06
1285.33	3.52657e-06
1293.89	4.65747e-06
1302.45	6.65097e-06
1311	1.01153e-05
1319.56	1.65775e-05
1328.12	3.07206e-05
1336.68	6.85376e-05
1345.23	0.000155002
1353.79	0.000238853
1362.35	0.000261761
1370.91	0.000291917
1379.46	0.000241336
1388.02	0.000114184
1396.58	5.86437e-05
1405.14	5.26214e-05
1413.7	6.19261e-05
1422.25	7.39888e-05
1430.81	7.37336e-05
1439.37	8.03688e-05
1447.93	7.9903e-05
1456.48	6.37743e-05
1465.04	4.80961e-05
1473.6	4.13548e-05
1482.16	2.58498e-05
1490.71	2.0586e-05
1499.27	1.75138e-05
1507.83	1.73211e-05
1516.39	1.64051e-05
1524.94	1.67925e-05
1533.5	1.6358e-05
1542.06	1.82873e-05
1550.62	1.46226e-05
1559.18	1.40176e-05
1567.73	1.20097e-05
1576.29	1.40348e-05
1584.85	8.24915e-06
1593.41	6.77092e-06
1601.96	5.2041e-06
1610.52	4.13873e-06
1619.08	3.52738e-06
1627.64	3.63273e-06
1636.19	3.69202e-06
1644.75	4.08085e-06
1653.31	1.11187e-05
1661.87	6.26542e-06
1670.42	8.84756e-06
1678.98	1.30253e-05
1687.54	1.93179e-05
1696.1	3.9942e-05
1704.65	9.69509e-05
1713.21	0.000228061
1721.77	0.000349883
1730.33	0.00039156
1738.89	0.000517196
1747.44	0.000438079
1756	0.000330761
1764.56	0.000218156
1773.12	0.000133114
1781.67	7.66033e-05
1790.23	5.38137e-05
1798.79	3.44528e-05
1807.35	2.15137e-05
1815.9	1.2508e-05
1824.46	7.90871e-06
1833.02	5.49817e-06
1841.58	4.29479e-06
1850.13	2.87977e-06
1858.69	2.10913e-06
1867.25	1.64318e-06
1875.81	1.40014e-06
1884.36	1.17876e-06
1892.92	8.97093e-07
1901.48	7.81142e-07
1910.04	7.13268e-07
1918.6	4.34501e-07
1927.15	3.90653e-07
1935.71	3.88295e-07
1944.27	4.21841e-07
1952.83	5.66169e-07
1961.38	7.78196e-07
1969.94	9.84207e-07
1978.5	1.12608e-06
1987.06	1.1152e-06
1995.61	1.00597e-06
2004.17	7.20282e-07
2012.73	3.135e-07
2021.29	1.59959e-07
2029.84	1.27776e-07
2038.4	1.56271e-07
2046.96	1.89909e-07
2055.52	2.92454e-07
2064.08	4.26256e-07
2072.63	6.46548e-07
2081.19	1.15747e-06
2089.75	1.97839e-06
2098.31	2.85868e-06
2106.86	3.83943e-06
2115.42	4.86424e-06
2123.98	5.6729e-06
2132.54	5.68441e-06
2141.09	5.22013e-06
2149.65	4.56706e-06
2158.21	3.07695e-06
2166.77	1.42359e-06
2175.32	8.58407e-07
2183.88	6.0844e-07
2192.44	6.32201e-07
2201	5.78567e-07
2209.55	7.58808e-07
2218.11	9.61283e-07
2226.67	1.44298e-06
2235.23	1.82857e-06
2243.79	2.3046e-06
2252.34	2.20266e-06
2260.9	2.1826e-06
2269.46	1.66456e-06
2278.02	1.26063e-06
2286.57	9.50915e-07
2295.13	8.05328e-07
2303.69	6.64901e-07
2312.25	7.54405e-07
2320.8	6.82026e-07
2329.36	7.00662e-07
2337.92	7.50688e-07
2346.48	5.73051e-07
2355.03	4.7526e-07
2363.59	3.99247e-07
2372.15	2.47967e-07
2380.71	2.05372e-07
2389.26	1.53911e-07
2397.82	2.10635e-07
2406.38	4.70195e-07
2414.94	7.49461e-07
2423.5	9.85057e-07
2432.05	9.62072e-07
2440.61	9.8497e-07
2449.17	1.11118e-06
2457.73	4.02278e-07
2466.28	2.79264e-07
2474.84	3.00216e-07
2483.4	4.09541e-07
2491.96	4.43152e-07
2500.51	5.34983e-07
2509.07	6.11438e-07
2517.63	5.81262e-07
2526.19	6.79814e-07
2534.74	7.93463e-07
2543.3	1.15156e-06
2551.86	1.71162e-06
2560.42	2.45752e-06
2568.98	2.65691e-06
2577.53	2.51962e-06
2586.09	2.61903e-06
2594.65	1.49486e-06
2603.21	6.54753e-07
2611.76	4.30049e-07
2620.32	4.45233e-07
2628.88	5.00275e-07
2637.44	5.55053e-07
2645.99	5.59409e-07
2654.55	5.48027e-07
2663.11	4.74873e-07
2671.67	3.21483e-07
2680.22	2.66439e-07
2688.78	3.60031e-07
2697.34	3.39494e-07
2705.9	5.34045e-07
2714.45	6.22122e-07
2723.01	4.68971e-07
2731.57	4.4274e-07
2740.13	4.73421e-07
2748.69	5.56594e-07
2757.24	7.52257e-07
2765.8	1.13111e-06
2774.36	1.83807e-06
2782.92	2.28543e-06
2791.47	2.67827e-06
2800.03	3.05003e-06
2808.59	3.04483e-06
2817.15	3.10917e-06
2825.7	3.79675e-06
2834.26	5.55195e-06
2842.82	7.25538e-06
2851.38	8.5168e-06
2859.93	9.21801e-06
2868.49	9.56864e-06
2877.05	8.80757e-06
2885.61	8.60732e-06
2894.16	9.87948e-06
2902.72	1.37988e-05
2911.28	2.22264e-05
2919.84	3.27852e-05
2928.4	3.75786e-05
2936.95	4.21908e-05
2945.51	4.90664e-05
2954.07	4.54016e-05
2962.63	3.90599e-05
2971.18	9.68852e-05
2979.74	3.79393e-05
2988.3	4.55046e-05
2996.86	5.2726e-05
3005.41	5.81077e-05
3013.97	5.83013e-05
3022.53	5.64242e-05
3031.09	5.34302e-05
3039.64	3.38562e-05
3048.2	2.39241e-05
3056.76	2.16272e-05
3065.32	2.05828e-05
3073.88	1.96262e-05
3082.43	1.77198e-05
3090.99	1.52167e-05
3099.55	1.16404e-05
3108.11	8.48558e-06
3116.66	5.76955e-06
3125.22	3.9595e-06
3133.78	2.85175e-06
3142.34	2.27425e-06
3150.89	2.13604e-06
3159.45	1.84231e-06
3168.01	1.687e-06
3176.57	1.59001e-06
3185.12	1.34968e-06
3193.68	1.16991e-06
3202.24	9.44954e-07
3210.8	8.60989e-07
3219.35	7.36042e-07
3227.91	5.84305e-07
3236.47	6.31104e-07
3245.03	6.54635e-07
3253.59	6.18448e-07
3262.14	4.70812e-07
3270.7	3.72594e-07
3279.26	3.76489e-07
3287.82	4.70478e-07
3296.37	3.83981e-07
3304.93	4.12103e-07
3313.49	4.17147e-07
3322.05	3.74901e-07
3330.6	2.86072e-07
3339.16	3.88447e-07
3347.72	3.20277e-07
3356.28	3.02504e-07
3364.83	3.7062e-07
3373.39	4.29567e-07
3381.95	5.93271e-07
3390.51	6.54302e-07
3399.06	6.76064e-07
3407.62	7.88244e-07
3416.18	1.41074e-06
3424.74	2.76558e-06
3433.3	5.69148e-06
3441.85	8.34957e-06
3450.41	9.70797e-06
3458.97	1.14572e-05
3467.53	1.05869e-05
3476.08	7.80431e-06
3484.64	4.88939e-06
3493.2	3.13039e-06
3501.76	2.2851e-06
3510.31	1.15963e-06
3518.87	7.32522e-07
3527.43	4.29972e-07
3535.99	2.7721e-07
3544.54	6.13144e-08
3553.1	7.60544e-08
3561.66	5.54928e-08
3570.22	2.13373e-08
3578.78	-1.35652e-07
3587.33	2.28389e-08
3595.89	7.22982e-08
3604.45	-1.6156e-08
3613.01	2.28442e-07
3621.56	4.43799e-08
3630.12	3.22094e-07
3638.68	1.1725e-07
3647.24	8.97945e-07
3655.79	3.8141e-07
3664.35	9.64558e-08
3672.91	1.46301e-07
3681.47	1.32964e-07
3690.02	2.79845e-07
3698.58	2.05392e-07
3707.14	2.27591e-07
3715.7	2.35819e-07
3724.25	3.7138e-07
3732.81	4.60939e-07
3741.37	7.76953e-07
3749.93	9.88346e-07
3758.49	4.10283e-07
3767.04	4.37751e-07
3775.6	4.15892e-07
3784.16	6.15135e-07
3792.72	6.18012e-07
3801.27	3.5721e-06
3809.83	7.98758e-07
3818.39	8.20806e-07
3826.95	1.04551e-06
3835.5	7.25404e-07
3844.06	6.76077e-07
3852.62	8.22659e-07
3861.18	3.91116e-07
3869.73	7.50136e-07
3878.29	2.96204e-07
3886.85	3.12531e-07
3895.41	3.70122e-07
3903.96	1.09488e-06
3912.52	5.56865e-07
3921.08	6.52254e-07
3929.64	6.91494e-07
3938.2	7.16435e-07
3946.75	6.51994e-07
3955.31	7.66732e-07
3963.87	7.82385e-07
3972.43	1.01194e-06
