Infrared Spectrum: 2-Propanone
Formula: C H3 C O C H3
CAS: 67-64-1
State: gas
Melting point: -95.35 C
Boiling point: 56.2 C
Class: IUPAC A
Instrument: IFS66V (Bruker)
Instrument parameters: KBr Beam splitter; MCT Detector; Multipass cell
Sampling: 1 L/min Flow
Resolution: 0.2410
Temperature: 23 C
Pressure: 101.3 kPa
Origin: NIST, Anayltical Chemistry Division, 301-975-3108
cm-1	(micromol/mol)-1m-1 (base 10)
575.048	-1.04815e-07
583.606	2.57844e-07
592.163	1.85428e-07
600.721	8.88598e-08
609.279	2.1852e-07
617.836	-1.40551e-08
626.394	-4.25937e-08
634.951	-2.73818e-07
643.509	-1.96339e-07
652.067	1.97388e-07
660.624	3.03903e-08
669.182	-1.19951e-08
677.74	5.42441e-08
686.297	-2.45978e-08
694.855	-2.02559e-08
703.412	-1.1813e-07
711.97	3.53542e-08
720.528	3.07281e-07
729.085	4.86006e-07
737.643	8.23289e-07
746.201	1.5922e-06
754.758	3.26221e-06
763.316	5.19433e-06
771.873	6.05419e-06
780.431	6.01323e-06
788.989	5.86694e-06
797.546	3.85269e-06
806.104	1.36562e-06
814.662	4.87537e-07
823.219	3.81022e-07
831.777	3.77577e-07
840.334	6.75466e-07
848.892	1.02938e-06
857.45	2.17889e-06
866.007	5.33224e-06
874.565	1.20292e-05
883.123	1.47535e-05
891.68	1.86074e-05
900.238	2.34757e-05
908.795	2.09829e-05
917.353	1.5447e-05
925.911	1.07483e-05
934.468	7.20045e-06
943.026	4.75494e-06
951.584	3.8673e-06
960.141	3.76682e-06
968.699	3.60697e-06
977.256	3.12328e-06
985.814	2.85777e-06
994.372	2.28887e-06
1002.93	1.92976e-06
1011.49	1.81744e-06
1020.04	1.84241e-06
1028.6	1.62978e-06
1037.16	1.9336e-06
1045.72	2.25589e-06
1054.28	2.52877e-06
1062.83	3.11734e-06
1071.39	4.44421e-06
1079.95	5.87152e-06
1088.51	9.63852e-06
1097.06	9.51019e-06
1105.62	1.03346e-05
1114.18	1.01606e-05
1122.74	7.14243e-06
1131.29	4.41825e-06
1139.85	2.99986e-06
1148.41	2.41753e-06
1156.97	2.54315e-06
1165.52	3.9736e-06
1174.08	8.24599e-06
1182.64	2.1151e-05
1191.2	7.67436e-05
1199.75	0.000201332
1208.31	0.000252453
1216.87	0.000383487
1225.43	0.000260699
1233.99	0.000222425
1242.54	4.93533e-05
1251.1	9.33746e-06
1259.66	4.14126e-06
1268.22	3.02662e-06
1276.77	2.94892e-06
1285.33	3.44966e-06
1293.89	4.58583e-06
1302.45	6.57338e-06
1311	1.00251e-05
1319.56	1.64543e-05
1328.12	3.05423e-05
1336.68	6.8318e-05
1345.23	0.00015508
1353.79	0.000239319
1362.35	0.000261553
1370.91	0.000292317
1379.46	0.000241697
1388.02	0.000113939
1396.58	5.84033e-05
1405.14	5.2529e-05
1413.7	6.18891e-05
1422.25	7.40218e-05
1430.81	7.36546e-05
1439.37	8.04193e-05
1447.93	8.00301e-05
1456.48	6.34601e-05
1465.04	4.81922e-05
1473.6	4.14432e-05
1482.16	2.57966e-05
1490.71	2.05716e-05
1499.27	1.74586e-05
1507.83	1.72164e-05
1516.39	1.63773e-05
1524.94	1.67555e-05
1533.5	1.63315e-05
1542.06	1.8364e-05
1550.62	1.45897e-05
1559.18	1.3906e-05
1567.73	1.19871e-05
1576.29	1.42486e-05
1584.85	8.22857e-06
1593.41	6.748e-06
1601.96	5.17151e-06
1610.52	4.10433e-06
1619.08	3.48432e-06
1627.64	3.66461e-06
1636.19	3.59993e-06
1644.75	4.01846e-06
1653.31	1.09658e-05
1661.87	6.1825e-06
1670.42	8.74209e-06
1678.98	1.29101e-05
1687.54	1.91398e-05
1696.1	4.0155e-05
1704.65	9.67568e-05
1713.21	0.000228191
1721.77	0.000350291
1730.33	0.000391614
1738.89	0.00051837
1747.44	0.000438542
1756	0.000330927
1764.56	0.000218108
1773.12	0.000133149
1781.67	7.64145e-05
1790.23	5.3653e-05
1798.79	3.43302e-05
1807.35	2.14303e-05
1815.9	1.24218e-05
1824.46	7.83711e-06
1833.02	5.45285e-06
1841.58	4.24515e-06
1850.13	2.83531e-06
1858.69	2.07462e-06
1867.25	1.61189e-06
1875.81	1.37763e-06
1884.36	1.1555e-06
1892.92	8.78339e-07
1901.48	7.65697e-07
1910.04	7.00044e-07
1918.6	4.0726e-07
1927.15	3.79539e-07
1935.71	3.76654e-07
1944.27	4.11653e-07
1952.83	5.60312e-07
1961.38	7.73346e-07
1969.94	9.79017e-07
1978.5	1.12034e-06
1987.06	1.11146e-06
1995.61	1.00162e-06
2004.17	7.15472e-07
2012.73	3.06595e-07
2021.29	1.49675e-07
2029.84	1.23138e-07
2038.4	1.51716e-07
2046.96	1.80575e-07
2055.52	2.83256e-07
2064.08	4.21234e-07
2072.63	6.42391e-07
2081.19	1.14567e-06
2089.75	1.97498e-06
2098.31	2.85466e-06
2106.86	3.84534e-06
2115.42	4.85821e-06
2123.98	5.67711e-06
2132.54	5.68525e-06
2141.09	5.22118e-06
2149.65	4.56826e-06
2158.21	3.07611e-06
2166.77	1.4166e-06
2175.32	8.49208e-07
2183.88	6.08016e-07
2192.44	6.2357e-07
2201	5.75741e-07
2209.55	7.51912e-07
2218.11	9.52937e-07
2226.67	1.44115e-06
2235.23	1.82566e-06
2243.79	2.30514e-06
2252.34	2.20127e-06
2260.9	2.18964e-06
2269.46	1.66395e-06
2278.02	1.25771e-06
2286.57	9.57496e-07
2295.13	7.99172e-07
2303.69	6.6437e-07
2312.25	7.51554e-07
2320.8	6.7574e-07
2329.36	6.95004e-07
2337.92	7.76901e-07
2346.48	5.6457e-07
2355.03	4.63733e-07
2363.59	3.78027e-07
2372.15	2.39933e-07
2380.71	2.03112e-07
2389.26	1.47835e-07
2397.82	2.16655e-07
2406.38	4.63211e-07
2414.94	7.45881e-07
2423.5	9.85288e-07
2432.05	9.59671e-07
2440.61	9.82837e-07
2449.17	1.10683e-06
2457.73	4.01822e-07
2466.28	2.76103e-07
2474.84	3.00353e-07
2483.4	4.05833e-07
2491.96	4.38117e-07
2500.51	5.39031e-07
2509.07	6.13836e-07
2517.63	5.75435e-07
2526.19	6.73758e-07
2534.74	8.01524e-07
2543.3	1.14463e-06
2551.86	1.72147e-06
2560.42	2.45956e-06
2568.98	2.65991e-06
2577.53	2.50978e-06
2586.09	2.62318e-06
2594.65	1.49965e-06
2603.21	6.48346e-07
2611.76	4.36925e-07
2620.32	4.4006e-07
2628.88	4.98845e-07
2637.44	5.55663e-07
2645.99	5.55576e-07
2654.55	5.44357e-07
2663.11	4.71615e-07
2671.67	3.17585e-07
2680.22	2.75552e-07
2688.78	3.57774e-07
2697.34	3.45225e-07
2705.9	5.30917e-07
2714.45	6.12552e-07
2723.01	4.69551e-07
2731.57	4.34128e-07
2740.13	4.68938e-07
2748.69	5.51861e-07
2757.24	7.43544e-07
2765.8	1.12716e-06
2774.36	1.83626e-06
2782.92	2.26931e-06
2791.47	2.68824e-06
2800.03	3.04401e-06
2808.59	3.04285e-06
2817.15	3.10553e-06
2825.7	3.79861e-06
2834.26	5.55276e-06
2842.82	7.26261e-06
2851.38	8.50719e-06
2859.93	9.21174e-06
2868.49	9.57153e-06
2877.05	8.79639e-06
2885.61	8.6034e-06
2894.16	9.86747e-06
2902.72	1.37678e-05
2911.28	2.22171e-05
2919.84	3.2812e-05
2928.4	3.75961e-05
2936.95	4.2206e-05
2945.51	4.91151e-05
2954.07	4.54322e-05
2962.63	3.89253e-05
2971.18	9.73032e-05
2979.74	3.78447e-05
2988.3	4.55078e-05
2996.86	5.27698e-05
3005.41	5.81541e-05
3013.97	5.83164e-05
3022.53	5.64398e-05
3031.09	5.35152e-05
3039.64	3.38294e-05
3048.2	2.3896e-05
3056.76	2.16154e-05
3065.32	2.059e-05
3073.88	1.96214e-05
3082.43	1.772e-05
3090.99	1.52348e-05
3099.55	1.16471e-05
3108.11	8.49666e-06
3116.66	5.74805e-06
3125.22	3.9543e-06
3133.78	2.84035e-06
3142.34	2.26474e-06
3150.89	2.14757e-06
3159.45	1.82716e-06
3168.01	1.6925e-06
3176.57	1.58433e-06
3185.12	1.34884e-06
3193.68	1.1586e-06
3202.24	9.49195e-07
3210.8	8.75089e-07
3219.35	7.27779e-07
3227.91	5.8545e-07
3236.47	6.30492e-07
3245.03	6.3213e-07
3253.59	6.06973e-07
3262.14	4.78874e-07
3270.7	3.5324e-07
3279.26	3.70618e-07
3287.82	4.6775e-07
3296.37	4.04994e-07
3304.93	4.21606e-07
3313.49	4.27481e-07
3322.05	3.7078e-07
3330.6	2.83814e-07
3339.16	3.88649e-07
3347.72	3.31135e-07
3356.28	3.18054e-07
3364.83	3.68056e-07
3373.39	4.43518e-07
3381.95	5.8817e-07
3390.51	6.50325e-07
3399.06	6.85094e-07
3407.62	7.8656e-07
3416.18	1.38033e-06
3424.74	2.76149e-06
3433.3	5.71044e-06
3441.85	8.36895e-06
3450.41	9.68888e-06
3458.97	1.14731e-05
3467.53	1.05966e-05
3476.08	7.78416e-06
3484.64	4.89071e-06
3493.2	3.11514e-06
3501.76	2.28177e-06
3510.31	1.15328e-06
3518.87	7.29064e-07
3527.43	4.35163e-07
3535.99	2.79843e-07
3544.54	6.20193e-08
3553.1	8.31929e-08
3561.66	5.78993e-08
3570.22	1.81614e-08
3578.78	-1.35851e-07
3587.33	4.03809e-10
3595.89	6.44276e-08
3604.45	-2.11272e-09
3613.01	2.1123e-07
3621.56	2.57456e-08
3630.12	2.78151e-07
3638.68	1.16988e-07
3647.24	9.08341e-07
3655.79	3.43568e-07
3664.35	8.49254e-08
3672.91	1.30976e-07
3681.47	1.29902e-07
3690.02	2.59277e-07
3698.58	2.11888e-07
3707.14	2.42721e-07
3715.7	2.24994e-07
3724.25	3.58158e-07
3732.81	4.42619e-07
3741.37	7.71426e-07
3749.93	9.50064e-07
3758.49	4.0287e-07
3767.04	4.15185e-07
3775.6	4.25421e-07
3784.16	6.15645e-07
3792.72	6.04102e-07
3801.27	3.84841e-06
3809.83	7.96786e-07
3818.39	8.19774e-07
3826.95	1.09296e-06
3835.5	7.01609e-07
3844.06	6.87936e-07
3852.62	7.64307e-07
3861.18	3.86354e-07
3869.73	6.90763e-07
3878.29	2.93176e-07
3886.85	2.7915e-07
3895.41	3.70657e-07
3903.96	1.19682e-06
3912.52	5.68113e-07
3921.08	6.36014e-07
3929.64	6.91873e-07
3938.2	7.17799e-07
3946.75	6.43667e-07
3955.31	7.64031e-07
3963.87	7.60409e-07
3972.43	1.03089e-06
