Infrared Spectrum: 2-Propanone
Formula: C H3 C O C H3
CAS: 67-64-1
State: gas
Melting point: -95.35 C
Boiling point: 56.2 C
Class: IUPAC A
Instrument: IFS66V (Bruker)
Instrument parameters: KBr Beam splitter; MCT Detector; Multipass cell
Sampling: 1 L/min Flow
Resolution: 1.9290
Temperature: 23 C
Pressure: 101.3 kPa
Origin: NIST, Anayltical Chemistry Division, 301-975-3108
cm-1	(micromol/mol)-1m-1 (base 10)
574.687	3.53519e-07
583.365	1.6777e-07
592.043	2.58221e-07
600.721	9.43858e-08
609.4	1.32784e-10
618.078	-1.1584e-08
626.756	-2.3983e-08
635.434	-9.75745e-08
644.112	-2.75327e-08
652.79	-6.13444e-09
661.469	-6.82256e-08
670.147	-3.72196e-08
678.825	-5.69853e-08
687.503	-5.13947e-08
696.181	-3.0071e-08
704.859	4.78177e-08
713.537	8.43788e-08
722.216	2.39322e-07
730.894	4.87363e-07
739.572	9.58896e-07
748.25	1.96879e-06
756.928	3.72869e-06
765.606	5.47205e-06
774.285	5.88837e-06
782.963	5.78363e-06
791.641	5.46199e-06
800.319	2.91829e-06
808.997	1.0535e-06
817.675	4.19878e-07
826.353	4.11355e-07
835.032	5.005e-07
843.71	7.60663e-07
852.388	1.3247e-06
861.066	3.06599e-06
869.744	7.81119e-06
878.422	1.36374e-05
887.101	1.97776e-05
895.779	2.33827e-05
904.457	2.22559e-05
913.135	1.849e-05
921.813	1.27207e-05
930.491	8.7113e-06
939.169	5.68081e-06
947.848	4.14722e-06
956.526	3.73508e-06
965.204	3.47066e-06
973.882	3.24098e-06
982.56	3.02414e-06
991.238	2.59607e-06
999.917	2.17214e-06
1008.59	1.77783e-06
1017.27	1.68245e-06
1025.95	1.60807e-06
1034.63	1.78393e-06
1043.31	2.14657e-06
1051.99	2.4277e-06
1060.66	2.91674e-06
1069.34	4.06682e-06
1078.02	5.67282e-06
1086.7	7.83711e-06
1095.38	1.3913e-05
1104.05	1.00228e-05
1112.73	1.04702e-05
1121.41	7.68467e-06
1130.09	4.7258e-06
1138.77	3.12122e-06
1147.45	2.44119e-06
1156.12	2.51465e-06
1164.8	3.79235e-06
1173.48	7.77552e-06
1182.16	1.99299e-05
1190.84	7.27788e-05
1199.51	0.000197527
1208.19	0.000252338
1216.87	0.000375189
1225.55	0.000261877
1234.23	0.000216323
1242.9	4.59525e-05
1251.58	8.80111e-06
1260.26	4.03327e-06
1268.94	3.01517e-06
1277.62	2.98516e-06
1286.3	3.63328e-06
1294.97	4.72527e-06
1303.65	6.97433e-06
1312.33	1.08453e-05
1321.01	1.81151e-05
1329.69	3.49466e-05
1338.36	8.12152e-05
1347.04	0.000177647
1355.72	0.000241198
1364.4	0.000309294
1373.08	0.000286554
1381.76	0.000209957
1390.43	8.94515e-05
1399.11	5.45502e-05
1407.79	5.40367e-05
1416.47	6.5952e-05
1425.15	7.586e-05
1433.82	8.24499e-05
1442.5	7.90397e-05
1451.18	6.94041e-05
1459.86	5.46516e-05
1468.54	4.19718e-05
1477.22	3.34553e-05
1485.89	2.26572e-05
1494.57	1.83248e-05
1503.25	1.67696e-05
1511.93	1.64061e-05
1520.61	1.73593e-05
1529.28	1.62862e-05
1537.96	1.64116e-05
1546.64	1.5066e-05
1555.32	1.433e-05
1564	1.29633e-05
1572.67	1.08361e-05
1581.35	8.86212e-06
1590.03	7.39708e-06
1598.71	5.71837e-06
1607.39	4.45949e-06
1616.07	4.58941e-06
1624.74	3.46693e-06
1633.42	3.26539e-06
1642.1	3.74679e-06
1650.78	4.93205e-06
1659.46	5.90226e-06
1668.13	8.38412e-06
1676.81	1.17279e-05
1685.49	1.84336e-05
1694.17	3.09e-05
1702.85	7.89224e-05
1711.53	0.000198187
1720.2	0.000332907
1728.88	0.000398843
1737.56	0.000513646
1746.24	0.00045434
1754.92	0.000349941
1763.59	0.000233323
1772.27	0.000136104
1780.95	7.88708e-05
1789.63	5.59561e-05
1798.31	3.53934e-05
1806.98	2.18321e-05
1815.66	1.26165e-05
1824.34	8.00071e-06
1833.02	5.46305e-06
1841.7	4.293e-06
1850.38	2.78362e-06
1859.05	2.00874e-06
1867.73	1.72476e-06
1876.41	1.34529e-06
1885.09	1.13863e-06
1893.77	8.97693e-07
1902.44	7.34448e-07
1911.12	5.11236e-07
1919.8	3.70577e-07
1928.48	3.55259e-07
1937.16	3.91361e-07
1945.84	4.69573e-07
1954.51	6.14338e-07
1963.19	8.12353e-07
1971.87	1.02146e-06
1980.55	1.1398e-06
1989.23	1.05401e-06
1997.9	8.80899e-07
2006.58	6.04592e-07
2015.26	2.36243e-07
2023.94	1.49615e-07
2032.62	1.45285e-07
2041.3	1.79567e-07
2049.97	2.18757e-07
2058.65	3.19444e-07
2067.33	4.73708e-07
2076.01	7.97046e-07
2084.69	1.4404e-06
2093.36	2.38073e-06
2102.04	3.08797e-06
2110.72	4.13022e-06
2119.4	5.3256e-06
2128.08	5.70264e-06
2136.75	5.57473e-06
2145.43	5.47537e-06
2154.11	3.90788e-06
2162.79	2.08556e-06
2171.47	9.75789e-07
2180.15	6.93308e-07
2188.82	5.40811e-07
2197.5	5.81585e-07
2206.18	6.49195e-07
2214.86	9.02487e-07
2223.54	1.20756e-06
2232.21	1.74023e-06
2240.89	2.07372e-06
2249.57	2.09512e-06
2258.25	2.24805e-06
2266.93	1.82587e-06
2275.61	1.37271e-06
2284.28	1.01671e-06
2292.96	8.35665e-07
2301.64	7.07169e-07
2310.32	6.96893e-07
2319	7.4798e-07
2327.67	8.12089e-07
2336.35	7.61029e-07
2345.03	6.40845e-07
2353.71	5.55337e-07
2362.39	5.54822e-07
2371.06	3.61266e-07
2379.74	1.76545e-07
2388.42	1.43609e-07
2397.1	2.46248e-07
2405.78	4.80091e-07
2414.46	7.31489e-07
2423.13	9.47725e-07
2431.81	1.00099e-06
2440.49	9.75796e-07
2449.17	1.03386e-06
2457.85	3.83135e-07
2466.52	2.87441e-07
2475.2	2.77518e-07
2483.88	3.79344e-07
2492.56	4.61296e-07
2501.24	5.41312e-07
2509.92	6.30288e-07
2518.59	6.03313e-07
2527.27	6.63961e-07
2535.95	8.42299e-07
2544.63	1.18825e-06
2553.31	1.85639e-06
2561.98	2.5229e-06
2570.66	2.77046e-06
2579.34	2.51495e-06
2588.02	2.49001e-06
2596.7	1.24144e-06
2605.38	5.67603e-07
2614.05	4.6186e-07
2622.73	4.58595e-07
2631.41	5.20649e-07
2640.09	5.87406e-07
2648.77	5.65651e-07
2657.44	5.43495e-07
2666.12	4.3198e-07
2674.8	3.11812e-07
2683.48	3.27908e-07
2692.16	3.62099e-07
2700.83	3.81286e-07
2709.51	5.23938e-07
2718.19	5.39836e-07
2726.87	4.48759e-07
2735.55	4.53841e-07
2744.23	4.94738e-07
2752.9	6.28601e-07
2761.58	9.4196e-07
2770.26	1.43237e-06
2778.94	2.15426e-06
2787.62	2.52736e-06
2796.29	2.97929e-06
2804.97	3.04418e-06
2813.65	3.08435e-06
2822.33	3.48219e-06
2831.01	4.77159e-06
2839.69	6.76138e-06
2848.36	8.09472e-06
2857.04	9.08979e-06
2865.72	9.71702e-06
2874.4	8.98202e-06
2883.08	8.49611e-06
2891.75	9.41715e-06
2900.43	1.23674e-05
2909.11	1.94527e-05
2917.79	3.06888e-05
2926.47	3.68691e-05
2935.14	3.91884e-05
2943.82	4.859e-05
2952.5	4.66323e-05
2961.18	3.90604e-05
2969.86	0.0001172
2978.54	3.80254e-05
2987.21	4.46716e-05
2995.89	5.19505e-05
3004.57	5.8168e-05
3013.25	5.73554e-05
3021.93	5.61317e-05
3030.6	5.4338e-05
3039.28	3.46029e-05
3047.96	2.4062e-05
3056.64	2.16763e-05
3065.32	2.05582e-05
3074	1.95831e-05
3082.67	1.76213e-05
3091.35	1.50181e-05
3100.03	1.14465e-05
3108.71	8.34605e-06
3117.39	5.60237e-06
3126.06	3.81306e-06
3134.74	2.79556e-06
3143.42	2.25962e-06
3152.1	2.03523e-06
3160.78	1.81158e-06
3169.46	1.69729e-06
3178.13	1.5489e-06
3186.81	1.2966e-06
3195.49	1.10502e-06
3204.17	9.06551e-07
3212.85	7.9573e-07
3221.52	7.02075e-07
3230.2	6.52789e-07
3238.88	6.1012e-07
3247.56	5.27226e-07
3256.24	5.07523e-07
3264.91	4.69695e-07
3273.59	4.50945e-07
3282.27	4.61492e-07
3290.95	4.76275e-07
3299.63	4.9049e-07
3308.31	4.78773e-07
3316.98	4.48107e-07
3325.66	3.95134e-07
3334.34	3.1128e-07
3343.02	2.65366e-07
3351.7	2.51275e-07
3360.37	2.74531e-07
3369.05	3.22929e-07
3377.73	5.2382e-07
3386.41	6.30745e-07
3395.09	6.24926e-07
3403.77	7.15216e-07
3412.44	9.61821e-07
3421.12	1.99431e-06
3429.8	4.37532e-06
3438.48	7.45189e-06
3447.16	9.72331e-06
3455.83	1.17251e-05
3464.51	1.11588e-05
3473.19	8.92493e-06
3481.87	5.82251e-06
3490.55	3.56982e-06
3499.22	2.42319e-06
3507.9	1.48983e-06
3516.58	7.73906e-07
3525.26	4.83352e-07
3533.94	2.06734e-07
3542.62	1.36431e-07
3551.29	1.17784e-07
3559.97	8.99885e-08
3568.65	2.2304e-07
3577.33	-4.31821e-08
3586.01	1.77089e-07
3594.68	4.86308e-08
3603.36	-5.07581e-09
3612.04	2.53278e-07
3620.72	2.53789e-07
3629.4	1.04401e-06
3638.08	1.0918e-07
3646.75	4.95396e-07
3655.43	4.50787e-07
3664.11	1.05594e-07
3672.79	1.85639e-07
3681.47	1.71699e-07
3690.14	4.57742e-07
3698.82	2.25252e-07
3707.5	2.49979e-07
3716.18	2.7986e-07
3724.86	4.24622e-07
3733.54	6.12461e-07
3742.21	4.51723e-07
3750.89	9.53337e-07
3759.57	7.40747e-07
3768.25	4.95076e-07
3776.93	4.93326e-07
3785.6	6.54224e-07
3794.28	6.35201e-07
3802.96	1.05341e-06
3811.64	7.37633e-07
3820.32	1.28638e-06
3828.99	6.83044e-07
3837.67	1.86206e-06
3846.35	4.5408e-07
3855.03	1.66251e-06
3863.71	5.37356e-07
3872.39	3.63377e-07
3881.06	5.76457e-07
3889.74	3.97011e-07
3898.42	6.43588e-07
3907.1	5.36815e-07
3915.78	6.39617e-07
3924.45	7.57381e-07
3933.13	7.58874e-07
3941.81	7.11554e-07
3950.49	7.24027e-07
3959.17	7.25007e-07
3967.85	8.4819e-07
