Infrared Spectrum: 2-Propanone
Formula: C H3 C O C H3
CAS: 67-64-1
State: gas
Melting point: -95.35 C
Boiling point: 56.2 C
Class: IUPAC A
Instrument: IFS66V (Bruker)
Instrument parameters: KBr Beam splitter; MCT Detector; Multipass cell
Sampling: 1 L/min Flow
Resolution: 0.9640
Temperature: 23 C
Pressure: 101.3 kPa
Origin: NIST, Anayltical Chemistry Division, 301-975-3108
cm-1	(micromol/mol)-1m-1 (base 10)
575.169	2.18974e-07
583.847	1.27816e-07
592.525	2.40015e-07
601.203	8.08919e-08
609.882	3.35716e-08
618.56	-3.01247e-08
627.238	-2.53472e-09
635.916	-3.83864e-08
644.594	5.75064e-09
653.272	-3.68767e-08
661.951	-7.07648e-08
670.629	-8.00652e-08
679.307	-6.98635e-08
687.985	-5.91808e-08
696.663	-5.56092e-08
705.341	6.25267e-08
714.019	7.19035e-08
722.698	2.61101e-07
731.376	5.0261e-07
740.054	9.93548e-07
748.732	2.04397e-06
757.41	3.8225e-06
766.088	5.51112e-06
774.767	5.85917e-06
783.445	5.8435e-06
792.123	5.35203e-06
800.801	2.75075e-06
809.479	1.03548e-06
818.157	4.35665e-07
826.835	4.14733e-07
835.514	5.03728e-07
844.192	7.62908e-07
852.87	1.37239e-06
861.548	3.23524e-06
870.226	8.18994e-06
878.904	1.34841e-05
887.583	1.97225e-05
896.261	2.2813e-05
904.939	2.21541e-05
913.617	1.81778e-05
922.295	1.24781e-05
930.973	8.50694e-06
939.651	5.53043e-06
948.33	4.09144e-06
957.008	3.73712e-06
965.686	3.43011e-06
974.364	3.22877e-06
983.042	3.00416e-06
991.72	2.55199e-06
1000.4	2.18301e-06
1009.08	1.76087e-06
1017.75	1.6731e-06
1026.43	1.60944e-06
1035.11	1.8012e-06
1043.79	2.17391e-06
1052.47	2.44697e-06
1061.15	2.95938e-06
1069.82	4.15596e-06
1078.5	5.76144e-06
1087.18	8.27993e-06
1095.86	1.03027e-05
1104.54	1.01385e-05
1113.21	1.03971e-05
1121.89	7.52144e-06
1130.57	4.59442e-06
1139.25	3.05506e-06
1147.93	2.40979e-06
1156.61	2.54124e-06
1165.28	3.92336e-06
1173.96	8.13518e-06
1182.64	2.1175e-05
1191.32	7.78945e-05
1200	0.000205157
1208.67	0.000250083
1217.35	0.000387112
1226.03	0.000268924
1234.71	0.000205076
1243.39	4.10263e-05
1252.07	8.2453e-06
1260.74	3.92106e-06
1269.42	2.99809e-06
1278.1	3.01309e-06
1286.78	3.70667e-06
1295.46	4.80229e-06
1304.13	7.1039e-06
1312.81	1.11059e-05
1321.49	1.86888e-05
1330.17	3.64501e-05
1338.85	8.52028e-05
1347.52	0.000183587
1356.2	0.00023974
1364.88	0.000342326
1373.56	0.000284755
1382.24	0.000201532
1390.92	8.53931e-05
1399.59	5.40191e-05
1408.27	5.4823e-05
1416.95	6.64543e-05
1425.63	7.59258e-05
1434.31	8.41058e-05
1442.98	7.82643e-05
1451.66	6.78342e-05
1460.34	5.39877e-05
1469.02	4.13525e-05
1477.7	3.28844e-05
1486.38	2.21117e-05
1495.05	1.82171e-05
1503.73	1.67012e-05
1512.41	1.6546e-05
1521.09	1.80978e-05
1529.77	1.6135e-05
1538.44	1.68605e-05
1547.12	1.49564e-05
1555.8	1.39336e-05
1564.48	1.29428e-05
1573.16	1.06948e-05
1581.83	8.78827e-06
1590.51	7.30464e-06
1599.19	5.64343e-06
1607.87	4.39265e-06
1616.55	5.4758e-06
1625.23	3.30518e-06
1633.9	3.31492e-06
1642.58	3.79231e-06
1651.26	5.07162e-06
1659.94	5.94618e-06
1668.62	8.82402e-06
1677.29	1.19105e-05
1685.97	1.77633e-05
1694.65	3.21761e-05
1703.33	8.30746e-05
1712.01	0.000206667
1720.69	0.000338443
1729.36	0.00039743
1738.04	0.000515774
1746.72	0.000448335
1755.4	0.000341065
1764.08	0.000225696
1772.75	0.000133833
1781.43	7.72356e-05
1790.11	5.41993e-05
1798.79	3.438e-05
1807.47	2.12707e-05
1816.15	1.22405e-05
1824.82	7.96473e-06
1833.5	5.36334e-06
1842.18	4.22803e-06
1850.86	2.71312e-06
1859.54	1.96697e-06
1868.21	1.73245e-06
1876.89	1.33132e-06
1885.57	1.13091e-06
1894.25	9.01439e-07
1902.93	7.18842e-07
1911.6	4.90846e-07
1920.28	3.55563e-07
1928.96	3.56124e-07
1937.64	3.96384e-07
1946.32	4.79409e-07
1955	6.25193e-07
1963.67	8.26946e-07
1972.35	1.01993e-06
1981.03	1.14036e-06
1989.71	1.01836e-06
1998.39	8.7601e-07
2007.06	5.72766e-07
2015.74	2.18836e-07
2024.42	1.4616e-07
2033.1	1.52648e-07
2041.78	1.84322e-07
2050.46	2.16787e-07
2059.13	3.31898e-07
2067.81	4.84344e-07
2076.49	8.21934e-07
2085.17	1.48858e-06
2093.85	2.43425e-06
2102.52	3.08655e-06
2111.2	4.20522e-06
2119.88	5.36938e-06
2128.56	5.70249e-06
2137.24	5.48651e-06
2145.91	5.27855e-06
2154.59	3.82321e-06
2163.27	1.9922e-06
2171.95	9.37473e-07
2180.63	6.77716e-07
2189.31	5.49265e-07
2197.98	5.88983e-07
2206.66	6.52576e-07
2215.34	8.93902e-07
2224.02	1.24828e-06
2232.7	1.75815e-06
2241.37	2.09849e-06
2250.05	2.09951e-06
2258.73	2.24236e-06
2267.41	1.80207e-06
2276.09	1.34988e-06
2284.77	1.00167e-06
2293.44	8.26285e-07
2302.12	6.92066e-07
2310.8	7.16785e-07
2319.48	7.35696e-07
2328.16	8.06725e-07
2336.83	6.86515e-07
2345.51	6.37355e-07
2354.19	5.72109e-07
2362.87	5.7673e-07
2371.55	3.48063e-07
2380.23	1.80022e-07
2388.9	1.41265e-07
2397.58	2.54459e-07
2406.26	4.8586e-07
2414.94	7.37879e-07
2423.62	9.6517e-07
2432.29	9.9174e-07
2440.97	9.89595e-07
2449.65	1.08475e-06
2458.33	3.56182e-07
2467.01	2.8093e-07
2475.68	2.79922e-07
2484.36	3.79103e-07
2493.04	4.69139e-07
2501.72	5.45434e-07
2510.4	6.33977e-07
2519.08	6.01144e-07
2527.75	6.6333e-07
2536.43	8.67801e-07
2545.11	1.19809e-06
2553.79	1.91178e-06
2562.47	2.5433e-06
2571.14	2.77247e-06
2579.82	2.50261e-06
2588.5	2.45171e-06
2597.18	1.17273e-06
2605.86	5.50718e-07
2614.54	4.59647e-07
2623.21	4.61497e-07
2631.89	5.09953e-07
2640.57	5.85759e-07
2649.25	5.62777e-07
2657.93	5.34119e-07
2666.6	4.26068e-07
2675.28	3.07387e-07
2683.96	3.357e-07
2692.64	3.58764e-07
2701.32	3.87386e-07
2709.99	5.30545e-07
2718.67	5.45512e-07
2727.35	4.56533e-07
2736.03	4.60663e-07
2744.71	5.08146e-07
2753.39	6.37545e-07
2762.06	9.66375e-07
2770.74	1.47407e-06
2779.42	2.15911e-06
2788.1	2.54593e-06
2796.78	3.01285e-06
2805.45	3.03957e-06
2814.13	3.10089e-06
2822.81	3.51157e-06
2831.49	4.88903e-06
2840.17	6.86412e-06
2848.85	8.15191e-06
2857.52	9.12891e-06
2866.2	9.6749e-06
2874.88	8.95225e-06
2883.56	8.49387e-06
2892.24	9.59047e-06
2900.91	1.26286e-05
2909.59	1.99933e-05
2918.27	3.12609e-05
2926.95	3.70153e-05
2935.63	3.98944e-05
2944.31	4.87712e-05
2952.98	4.62738e-05
2961.66	3.88935e-05
2970.34	0.000124819
2979.02	3.77459e-05
2987.7	4.50786e-05
2996.37	5.24003e-05
3005.05	5.82161e-05
3013.73	5.79754e-05
3022.41	5.64005e-05
3031.09	5.35561e-05
3039.76	3.35758e-05
3048.44	2.37758e-05
3057.12	2.15805e-05
3065.8	2.04952e-05
3074.48	1.94851e-05
3083.16	1.75095e-05
3091.83	1.4789e-05
3100.51	1.12947e-05
3109.19	8.19916e-06
3117.87	5.49366e-06
3126.55	3.73416e-06
3135.22	2.76053e-06
3143.9	2.23482e-06
3152.58	2.05655e-06
3161.26	1.78459e-06
3169.94	1.68767e-06
3178.62	1.52716e-06
3187.29	1.27665e-06
3195.97	1.10311e-06
3204.65	9.01659e-07
3213.33	7.6659e-07
3222.01	7.11031e-07
3230.68	6.59317e-07
3239.36	5.88382e-07
3248.04	5.27525e-07
3256.72	5.22899e-07
3265.4	4.57324e-07
3274.07	4.3223e-07
3282.75	4.62059e-07
3291.43	4.9997e-07
3300.11	5.14048e-07
3308.79	4.90009e-07
3317.47	4.63598e-07
3326.14	3.85649e-07
3334.82	3.24141e-07
3343.5	2.70517e-07
3352.18	2.70991e-07
3360.86	2.5386e-07
3369.53	3.2173e-07
3378.21	5.61858e-07
3386.89	6.52997e-07
3395.57	6.20217e-07
3404.25	7.11754e-07
3412.93	9.98421e-07
3421.6	2.07739e-06
3430.28	4.5401e-06
3438.96	7.60587e-06
3447.64	9.8197e-06
3456.32	1.16767e-05
3464.99	1.11049e-05
3473.67	8.74203e-06
3482.35	5.6605e-06
3491.03	3.51828e-06
3499.71	2.39402e-06
3508.39	1.45443e-06
3517.06	7.47462e-07
3525.74	4.8494e-07
3534.42	1.93214e-07
3543.1	1.59334e-07
3551.78	1.45439e-07
3560.45	1.03959e-07
3569.13	6.94834e-08
3577.81	-7.51913e-08
3586.49	3.50579e-07
3595.17	1.18645e-07
3603.84	-1.81123e-08
3612.52	4.88468e-07
3621.2	1.42558e-07
3629.88	1.05466e-06
3638.56	1.22768e-07
3647.24	7.03566e-07
3655.91	7.63067e-07
3664.59	9.43294e-08
3673.27	1.88842e-07
3681.95	1.5135e-07
3690.63	5.31565e-07
3699.3	2.36466e-07
3707.98	2.5096e-07
3716.66	2.89131e-07
3725.34	4.26862e-07
3734.02	6.14979e-07
3742.7	4.32868e-07
3751.37	1.00188e-06
3760.05	8.40954e-07
3768.73	5.01873e-07
3777.41	5.17088e-07
3786.09	5.86314e-07
3794.76	6.72231e-07
3803.44	9.21981e-07
3812.12	7.55247e-07
3820.8	1.57185e-06
3829.48	6.70162e-07
3838.16	2.26055e-06
3846.83	4.53611e-07
3855.51	6.04101e-07
3864.19	6.23559e-07
3872.87	3.70206e-07
3881.55	4.1727e-07
3890.22	4.05292e-07
3898.9	8.51793e-07
3907.58	4.92491e-07
3916.26	6.83988e-07
3924.94	8.18423e-07
3933.61	6.85487e-07
3942.29	7.64182e-07
3950.97	6.81754e-07
3959.65	7.33395e-07
3968.33	8.6526e-07
