Infrared Spectrum: 2-Propanone
Formula: C H3 C O C H3
CAS: 67-64-1
State: gas
Melting point: -95.35 C
Boiling point: 56.2 C
Class: IUPAC A
Instrument: IFS66V (Bruker)
Instrument parameters: KBr Beam splitter; MCT Detector; Multipass cell
Sampling: 1 L/min Flow
Resolution: 0.9640
Temperature: 23 C
Pressure: 101.3 kPa
Origin: NIST, Anayltical Chemistry Division, 301-975-3108
cm-1	(micromol/mol)-1m-1 (base 10)
575.169	1.66458e-07
583.847	1.78159e-07
592.525	1.2756e-07
601.203	1.34667e-08
609.882	-2.01832e-08
618.56	-8.74392e-08
627.238	6.15354e-08
635.916	-3.69394e-08
644.594	1.87589e-08
653.272	-1.13089e-07
661.951	-4.49592e-08
670.629	-1.6239e-07
679.307	-1.8533e-07
687.985	-5.76174e-08
696.663	-1.83365e-07
705.341	9.6444e-08
714.019	5.09136e-08
722.698	2.58569e-07
731.376	5.16087e-07
740.054	1.00685e-06
748.732	2.06257e-06
757.41	3.77918e-06
766.088	5.42411e-06
774.767	5.9026e-06
783.445	5.81436e-06
792.123	5.29979e-06
800.801	2.77184e-06
809.479	9.85926e-07
818.157	4.43018e-07
826.835	3.34966e-07
835.514	4.18675e-07
844.192	7.29722e-07
852.87	1.32087e-06
861.548	3.20392e-06
870.226	8.14837e-06
878.904	1.34182e-05
887.583	1.97507e-05
896.261	2.26761e-05
904.939	2.21253e-05
913.617	1.81583e-05
922.295	1.24692e-05
930.973	8.4979e-06
939.651	5.4917e-06
948.33	4.0436e-06
957.008	3.73354e-06
965.686	3.39634e-06
974.364	3.1973e-06
983.042	3.00429e-06
991.72	2.4929e-06
1000.4	2.18496e-06
1009.08	1.73453e-06
1017.75	1.64806e-06
1026.43	1.52601e-06
1035.11	1.74516e-06
1043.79	2.16321e-06
1052.47	2.41259e-06
1061.15	2.87402e-06
1069.82	4.05275e-06
1078.5	5.61139e-06
1087.18	7.95455e-06
1095.86	1.08783e-05
1104.54	1.02748e-05
1113.21	1.04773e-05
1121.89	7.56941e-06
1130.57	4.62363e-06
1139.25	3.07712e-06
1147.93	2.40411e-06
1156.61	2.5492e-06
1165.28	3.91036e-06
1173.96	8.13856e-06
1182.64	2.11507e-05
1191.32	7.80291e-05
1200	0.000205378
1208.67	0.000250355
1217.35	0.000392351
1226.03	0.000269289
1234.71	0.000205145
1243.39	4.07204e-05
1252.07	8.11609e-06
1260.74	3.84287e-06
1269.42	2.9211e-06
1278.1	2.94857e-06
1286.78	3.63511e-06
1295.46	4.69231e-06
1304.13	7.0002e-06
1312.81	1.09531e-05
1321.49	1.84977e-05
1330.17	3.62596e-05
1338.85	8.48662e-05
1347.52	0.000183191
1356.2	0.000238958
1364.88	0.000313728
1373.56	0.000285483
1382.24	0.000202047
1390.92	8.55243e-05
1399.59	5.41589e-05
1408.27	5.48457e-05
1416.95	6.64472e-05
1425.63	7.60851e-05
1434.31	8.52873e-05
1442.98	7.85301e-05
1451.66	6.8234e-05
1460.34	5.38037e-05
1469.02	4.13167e-05
1477.7	3.29593e-05
1486.38	2.21262e-05
1495.05	1.84457e-05
1503.73	1.66775e-05
1512.41	1.69569e-05
1521.09	1.911e-05
1529.77	1.6102e-05
1538.44	1.56009e-05
1547.12	1.50256e-05
1555.8	1.36881e-05
1564.48	1.31453e-05
1573.16	1.08991e-05
1581.83	8.82257e-06
1590.51	7.34872e-06
1599.19	5.6902e-06
1607.87	4.42086e-06
1616.55	6.96116e-06
1625.23	3.17289e-06
1633.9	3.16572e-06
1642.58	3.92488e-06
1651.26	5.49289e-06
1659.94	5.82967e-06
1668.62	8.33457e-06
1677.29	1.19216e-05
1685.97	1.80677e-05
1694.65	3.23886e-05
1703.33	8.29314e-05
1712.01	0.000206522
1720.69	0.00033848
1729.36	0.000397547
1738.04	0.000515585
1746.72	0.000448356
1755.4	0.0003408
1764.08	0.000225764
1772.75	0.000133469
1781.43	7.69833e-05
1790.11	5.3951e-05
1798.79	3.42941e-05
1807.47	2.13896e-05
1816.15	1.22858e-05
1824.82	7.93338e-06
1833.5	5.36504e-06
1842.18	4.33812e-06
1850.86	2.70547e-06
1859.54	1.98137e-06
1868.21	1.81317e-06
1876.89	1.32882e-06
1885.57	1.14542e-06
1894.25	8.9146e-07
1902.93	7.13671e-07
1911.6	4.7665e-07
1920.28	3.84119e-07
1928.96	3.66912e-07
1937.64	4.10819e-07
1946.32	4.94209e-07
1955	6.42056e-07
1963.67	8.30296e-07
1972.35	1.0027e-06
1981.03	1.16333e-06
1989.71	1.04915e-06
1998.39	8.63981e-07
2007.06	5.67639e-07
2015.74	2.24548e-07
2024.42	1.48912e-07
2033.1	1.64055e-07
2041.78	1.94961e-07
2050.46	2.12312e-07
2059.13	3.47091e-07
2067.81	4.95694e-07
2076.49	8.24391e-07
2085.17	1.50493e-06
2093.85	2.46148e-06
2102.52	3.08797e-06
2111.2	4.2016e-06
2119.88	5.37242e-06
2128.56	5.71275e-06
2137.24	5.48451e-06
2145.91	5.24925e-06
2154.59	3.84158e-06
2163.27	2.00235e-06
2171.95	9.3532e-07
2180.63	6.8727e-07
2189.31	5.50737e-07
2197.98	5.77803e-07
2206.66	6.43006e-07
2215.34	8.89345e-07
2224.02	1.25987e-06
2232.7	1.74025e-06
2241.37	2.09695e-06
2250.05	2.10767e-06
2258.73	2.24586e-06
2267.41	1.78951e-06
2276.09	1.35283e-06
2284.77	1.01758e-06
2293.44	8.33444e-07
2302.12	6.78613e-07
2310.8	7.13997e-07
2319.48	7.18261e-07
2328.16	7.70642e-07
2336.83	5.07131e-07
2345.51	6.27008e-07
2354.19	6.44198e-07
2362.87	8.5913e-07
2371.55	4.56596e-07
2380.23	1.72775e-07
2388.9	1.29967e-07
2397.58	2.3235e-07
2406.26	4.82313e-07
2414.94	7.43009e-07
2423.62	9.96945e-07
2432.29	9.94175e-07
2440.97	9.791e-07
2449.65	1.16028e-06
2458.33	3.35885e-07
2467.01	2.90407e-07
2475.68	2.82685e-07
2484.36	3.68004e-07
2493.04	4.68795e-07
2501.72	5.45939e-07
2510.4	6.5092e-07
2519.08	6.00905e-07
2527.75	6.78767e-07
2536.43	8.89437e-07
2545.11	1.1815e-06
2553.79	1.94819e-06
2562.47	2.55418e-06
2571.14	2.7663e-06
2579.82	2.50832e-06
2588.5	2.47473e-06
2597.18	1.16753e-06
2605.86	5.18475e-07
2614.54	4.83267e-07
2623.21	4.58794e-07
2631.89	5.05203e-07
2640.57	5.86422e-07
2649.25	5.7326e-07
2657.93	5.24369e-07
2666.6	4.07471e-07
2675.28	3.0695e-07
2683.96	3.53076e-07
2692.64	3.58141e-07
2701.32	3.7269e-07
2709.99	5.15531e-07
2718.67	5.21378e-07
2727.35	4.99442e-07
2736.03	4.5683e-07
2744.71	5.15439e-07
2753.39	6.37646e-07
2762.06	9.80385e-07
2770.74	1.47896e-06
2779.42	2.13994e-06
2788.1	2.5317e-06
2796.78	3.0018e-06
2805.45	3.02136e-06
2814.13	3.09762e-06
2822.81	3.53751e-06
2831.49	4.877e-06
2840.17	6.88659e-06
2848.85	8.12893e-06
2857.52	9.13316e-06
2866.2	9.71296e-06
2874.88	8.99912e-06
2883.56	8.50815e-06
2892.24	9.63439e-06
2900.91	1.26448e-05
2909.59	1.99502e-05
2918.27	3.12723e-05
2926.95	3.69773e-05
2935.63	3.9846e-05
2944.31	4.87499e-05
2952.98	4.63108e-05
2961.66	3.87827e-05
2970.34	0.000129956
2979.02	3.76711e-05
2987.7	4.50892e-05
2996.37	5.24246e-05
3005.05	5.82119e-05
3013.73	5.78417e-05
3022.41	5.64324e-05
3031.09	5.35977e-05
3039.76	3.35631e-05
3048.44	2.38011e-05
3057.12	2.15869e-05
3065.8	2.0499e-05
3074.48	1.95101e-05
3083.16	1.74886e-05
3091.83	1.47914e-05
3100.51	1.13038e-05
3109.19	8.24222e-06
3117.87	5.51982e-06
3126.55	3.71571e-06
3135.22	2.76467e-06
3143.9	2.22571e-06
3152.58	2.09204e-06
3161.26	1.76942e-06
3169.94	1.69668e-06
3178.62	1.51028e-06
3187.29	1.26985e-06
3195.97	1.14015e-06
3204.65	9.26624e-07
3213.33	6.93476e-07
3222.01	7.27309e-07
3230.68	6.72881e-07
3239.36	5.84966e-07
3248.04	5.04485e-07
3256.72	4.96266e-07
3265.4	4.58076e-07
3274.07	4.2374e-07
3282.75	4.94367e-07
3291.43	4.99291e-07
3300.11	5.68604e-07
3308.79	4.78473e-07
3317.47	4.85818e-07
3326.14	3.85094e-07
3334.82	3.74258e-07
3343.5	2.54405e-07
3352.18	2.88911e-07
3360.86	2.08306e-07
3369.53	2.39327e-07
3378.21	6.02085e-07
3386.89	6.80135e-07
3395.57	6.31404e-07
3404.25	6.92915e-07
3412.93	9.75299e-07
3421.6	2.11786e-06
3430.28	4.56091e-06
3438.96	7.60891e-06
3447.64	9.79723e-06
3456.32	1.16725e-05
3464.99	1.11169e-05
3473.67	8.77984e-06
3482.35	5.65714e-06
3491.03	3.51509e-06
3499.71	2.41573e-06
3508.39	1.51359e-06
3517.06	7.67583e-07
3525.74	5.53363e-07
3534.42	2.14248e-07
3543.1	1.61742e-07
3551.78	8.54866e-08
3560.45	1.41089e-07
3569.13	1.72474e-08
3577.81	-9.73044e-08
3586.49	7.3423e-07
3595.17	2.29792e-07
3603.84	-7.19362e-08
3612.52	1.00044e-06
3621.2	1.65745e-07
3629.88	1.37982e-06
3638.56	1.39321e-07
3647.24	1.08156e-06
3655.91	6.22515e-07
3664.59	3.26767e-08
3673.27	-1.36499e-07
3681.95	7.47438e-08
3690.63	4.33155e-07
3699.3	2.88449e-07
3707.98	3.19644e-07
3716.66	2.20893e-07
3725.34	4.57441e-07
3734.02	3.22177e-07
3742.7	4.40718e-07
3751.37	3.5141e-07
3760.05	1.17033e-06
3768.73	5.76802e-07
3777.41	4.65763e-07
3786.09	5.15609e-07
3794.76	6.12404e-07
3803.44	8.87905e-07
3812.12	9.15782e-07
3820.8	2.03719e-06
3829.48	6.33838e-07
3838.16	3.00722e-06
3846.83	5.72127e-07
3855.51	6.34481e-07
3864.19	6.02221e-07
3872.87	2.48531e-07
3881.55	4.91917e-07
3890.22	3.80502e-07
3898.9	6.4553e-07
3907.58	4.24245e-07
3916.26	7.56435e-07
3924.94	8.97128e-07
3933.61	6.87312e-07
3942.29	7.31389e-07
3950.97	6.91861e-07
3959.65	7.70487e-07
3968.33	8.21615e-07
