Infrared Spectrum: 2-Propanone
Formula: C H3 C O C H3
CAS: 67-64-1
State: gas
Melting point: -95.35 C
Boiling point: 56.2 C
Class: IUPAC A
Instrument: IFS66V (Bruker)
Instrument parameters: KBr Beam splitter; MCT Detector; Multipass cell
Sampling: 1 L/min Flow
Resolution: 0.4820
Temperature: 23 C
Pressure: 101.3 kPa
Origin: NIST, Anayltical Chemistry Division, 301-975-3108
cm-1	(micromol/mol)-1m-1 (base 10)
574.928	1.11887e-07
583.606	2.32464e-07
592.284	1.333e-07
600.962	1.30428e-07
609.641	-1.38514e-09
618.319	-2.55264e-08
626.997	5.04561e-08
635.675	-7.62344e-08
644.353	3.64047e-08
653.031	-4.73475e-08
661.71	-1.06076e-07
670.388	-4.76904e-08
679.066	-7.78924e-08
687.744	-7.6169e-08
696.422	-4.97149e-08
705.1	6.97353e-08
713.778	7.24374e-08
722.457	2.28466e-07
731.135	5.50225e-07
739.813	9.67071e-07
748.491	2.01614e-06
757.169	3.76666e-06
765.847	5.43518e-06
774.526	5.89985e-06
783.204	5.74825e-06
791.882	5.40312e-06
800.56	2.85794e-06
809.238	1.05677e-06
817.916	4.39949e-07
826.594	4.28471e-07
835.273	4.67461e-07
843.951	7.48431e-07
852.629	1.32473e-06
861.307	3.14776e-06
869.985	7.99115e-06
878.663	1.35732e-05
887.342	2.01875e-05
896.02	2.28635e-05
904.698	2.22067e-05
913.376	1.83268e-05
922.054	1.25874e-05
930.732	8.61697e-06
939.41	5.59047e-06
948.089	4.11248e-06
956.767	3.73614e-06
965.445	3.44673e-06
974.123	3.23324e-06
982.801	3.02715e-06
991.479	2.58344e-06
1000.16	2.19132e-06
1008.84	1.77909e-06
1017.51	1.689e-06
1026.19	1.61502e-06
1034.87	1.78435e-06
1043.55	2.16601e-06
1052.23	2.44411e-06
1060.9	2.9226e-06
1069.58	4.1096e-06
1078.26	5.68589e-06
1086.94	7.97431e-06
1095.62	1.02658e-05
1104.3	1.00755e-05
1112.97	1.045e-05
1121.65	7.60791e-06
1130.33	4.64108e-06
1139.01	3.1022e-06
1147.69	2.40482e-06
1156.36	2.54765e-06
1165.04	3.8605e-06
1173.72	7.92732e-06
1182.4	2.04765e-05
1191.08	7.53998e-05
1199.76	0.000201477
1208.43	0.000251545
1217.11	0.000387591
1225.79	0.0002658
1234.47	0.000211096
1243.15	4.30873e-05
1251.82	8.47058e-06
1260.5	4.00018e-06
1269.18	3.01233e-06
1277.86	2.99817e-06
1286.54	3.67234e-06
1295.21	4.76259e-06
1303.89	7.03764e-06
1312.57	1.09925e-05
1321.25	1.83575e-05
1329.93	3.56255e-05
1338.61	8.31176e-05
1347.28	0.000180545
1355.96	0.000240921
1364.64	0.000301788
1373.32	0.000285741
1382	0.000205883
1390.67	8.72145e-05
1399.35	5.45514e-05
1408.03	5.43309e-05
1416.71	6.60098e-05
1425.39	7.58843e-05
1434.07	8.3937e-05
1442.74	7.86055e-05
1451.42	6.86233e-05
1460.1	5.424e-05
1468.78	4.15975e-05
1477.46	3.31644e-05
1486.13	2.22594e-05
1494.81	1.82185e-05
1503.49	1.672e-05
1512.17	1.68109e-05
1520.85	1.73328e-05
1529.52	1.6145e-05
1538.2	1.61057e-05
1546.88	1.49699e-05
1555.56	1.39639e-05
1564.24	1.28477e-05
1572.92	1.07697e-05
1581.59	8.83787e-06
1590.27	7.34824e-06
1598.95	5.68163e-06
1607.63	4.42686e-06
1616.31	4.82212e-06
1624.98	3.33329e-06
1633.66	3.25249e-06
1642.34	3.78043e-06
1651.02	4.88733e-06
1659.7	5.92883e-06
1668.38	8.60844e-06
1677.05	1.17677e-05
1685.73	1.74835e-05
1694.41	3.13391e-05
1703.09	8.07529e-05
1711.77	0.000202361
1720.44	0.000335761
1729.12	0.000398913
1737.8	0.000514905
1746.48	0.000451464
1755.16	0.000345031
1763.84	0.000229509
1772.51	0.000134025
1781.19	7.78556e-05
1789.87	5.47921e-05
1798.55	3.48044e-05
1807.23	2.15595e-05
1815.9	1.2414e-05
1824.58	7.83203e-06
1833.26	5.40512e-06
1841.94	4.24302e-06
1850.62	2.73941e-06
1859.29	1.97194e-06
1867.97	1.84927e-06
1876.65	1.34036e-06
1885.33	1.13031e-06
1894.01	9.06041e-07
1902.69	7.16973e-07
1911.36	4.95396e-07
1920.04	3.48364e-07
1928.72	3.59942e-07
1937.4	4.01585e-07
1946.08	4.78942e-07
1954.75	6.16514e-07
1963.43	8.22063e-07
1972.11	1.00351e-06
1980.79	1.15754e-06
1989.47	1.01944e-06
1998.15	8.79745e-07
2006.82	5.81733e-07
2015.5	2.18109e-07
2024.18	1.32287e-07
2032.86	1.65156e-07
2041.54	1.87522e-07
2050.21	2.25187e-07
2058.89	3.36977e-07
2067.57	4.71895e-07
2076.25	8.1418e-07
2084.93	1.46329e-06
2093.6	2.43834e-06
2102.28	3.07018e-06
2110.96	4.15094e-06
2119.64	5.34634e-06
2128.32	5.69665e-06
2137	5.50307e-06
2145.67	5.43142e-06
2154.35	3.86046e-06
2163.03	2.02787e-06
2171.71	9.54815e-07
2180.39	7.03981e-07
2189.06	5.2858e-07
2197.74	5.84737e-07
2206.42	6.36464e-07
2215.1	8.94552e-07
2223.78	1.2326e-06
2232.46	1.74899e-06
2241.13	2.08841e-06
2249.81	2.09601e-06
2258.49	2.25956e-06
2267.17	1.81853e-06
2275.85	1.37156e-06
2284.52	1.02049e-06
2293.2	8.34642e-07
2301.88	6.77091e-07
2310.56	7.10325e-07
2319.24	8.14811e-07
2327.92	7.31066e-07
2336.59	6.22144e-07
2345.27	5.72932e-07
2353.95	4.74964e-07
2362.63	6.73603e-07
2371.31	4.04035e-07
2379.98	1.78501e-07
2388.66	1.35939e-07
2397.34	2.51636e-07
2406.02	4.89067e-07
2414.7	7.37674e-07
2423.37	9.69288e-07
2432.05	9.77756e-07
2440.73	9.79001e-07
2449.41	1.12183e-06
2458.09	3.74514e-07
2466.77	2.87388e-07
2475.44	2.7517e-07
2484.12	3.71453e-07
2492.8	4.64824e-07
2501.48	5.32464e-07
2510.16	6.49661e-07
2518.83	6.17688e-07
2527.51	6.42165e-07
2536.19	8.59386e-07
2544.87	1.17356e-06
2553.55	1.89176e-06
2562.23	2.54622e-06
2570.9	2.77584e-06
2579.58	2.51026e-06
2588.26	2.46764e-06
2596.94	1.21004e-06
2605.62	5.49853e-07
2614.29	4.72589e-07
2622.97	4.5786e-07
2631.65	5.07921e-07
2640.33	5.82614e-07
2649.01	5.76973e-07
2657.68	5.52123e-07
2666.36	4.13893e-07
2675.04	3.15651e-07
2683.72	3.4347e-07
2692.4	3.6014e-07
2701.08	3.63166e-07
2709.75	5.28263e-07
2718.43	5.42321e-07
2727.11	4.62247e-07
2735.79	4.47883e-07
2744.47	5.02983e-07
2753.14	6.16756e-07
2761.82	9.49496e-07
2770.5	1.44467e-06
2779.18	2.16353e-06
2787.86	2.54625e-06
2796.54	2.97218e-06
2805.21	3.02029e-06
2813.89	3.06656e-06
2822.57	3.47519e-06
2831.25	4.82788e-06
2839.93	6.81004e-06
2848.6	8.11253e-06
2857.28	9.11394e-06
2865.96	9.70664e-06
2874.64	8.97309e-06
2883.32	8.4792e-06
2892	9.49344e-06
2900.67	1.24911e-05
2909.35	1.96671e-05
2918.03	3.09998e-05
2926.71	3.69418e-05
2935.39	3.94733e-05
2944.06	4.86369e-05
2952.74	4.64154e-05
2961.42	3.88828e-05
2970.1	0.000136133
2978.78	3.77194e-05
2987.45	4.48858e-05
2996.13	5.21971e-05
3004.81	5.82629e-05
3013.49	5.7511e-05
3022.17	5.63419e-05
3030.85	5.40131e-05
3039.52	3.40918e-05
3048.2	2.39043e-05
3056.88	2.16137e-05
3065.56	2.05545e-05
3074.24	1.95501e-05
3082.91	1.75741e-05
3091.59	1.4935e-05
3100.27	1.13629e-05
3108.95	8.29217e-06
3117.63	5.59472e-06
3126.31	3.79219e-06
3134.98	2.79627e-06
3143.66	2.23776e-06
3152.34	2.02203e-06
3161.02	1.77254e-06
3169.7	1.68595e-06
3178.37	1.5344e-06
3187.05	1.29808e-06
3195.73	1.08783e-06
3204.41	9.14246e-07
3213.09	7.72491e-07
3221.77	7.08224e-07
3230.44	6.72569e-07
3239.12	6.05634e-07
3247.8	5.12086e-07
3256.48	5.1774e-07
3265.16	4.82795e-07
3273.83	4.42717e-07
3282.51	4.36922e-07
3291.19	4.97129e-07
3299.87	5.35123e-07
3308.55	4.60621e-07
3317.22	4.51958e-07
3325.9	3.8437e-07
3334.58	3.1145e-07
3343.26	2.47692e-07
3351.94	2.73758e-07
3360.62	2.3445e-07
3369.29	2.40338e-07
3377.97	5.18323e-07
3386.65	6.64512e-07
3395.33	6.20264e-07
3404.01	6.96494e-07
3412.68	9.66525e-07
3421.36	1.98037e-06
3430.04	4.44747e-06
3438.72	7.55254e-06
3447.4	9.80817e-06
3456.08	1.16865e-05
3464.75	1.11541e-05
3473.43	8.83221e-06
3482.11	5.75397e-06
3490.79	3.52792e-06
3499.47	2.40282e-06
3508.14	1.43978e-06
3516.82	7.60976e-07
3525.5	5.20078e-07
3534.18	1.92216e-07
3542.86	1.74747e-07
3551.53	8.95974e-08
3560.21	1.59913e-07
3568.89	5.54965e-08
3577.57	-5.34092e-08
3586.25	3.29755e-07
3594.93	2.73317e-08
3603.6	-3.44857e-08
3612.28	5.0081e-07
3620.96	1.83495e-07
3629.64	1.96618e-06
3638.32	1.46453e-07
3646.99	6.7339e-07
3655.67	3.02911e-07
3664.35	8.82059e-08
3673.03	1.54311e-07
3681.71	1.44509e-07
3690.39	3.82793e-07
3699.06	2.46169e-07
3707.74	2.06208e-07
3716.42	2.85398e-07
3725.1	5.31132e-07
3733.78	4.53293e-07
3742.45	3.73706e-07
3751.13	6.31121e-07
3759.81	1.1544e-06
3768.49	4.71929e-07
3777.17	4.93061e-07
3785.85	5.68246e-07
3794.52	6.54122e-07
3803.2	1.00304e-06
3811.88	7.25515e-07
3820.56	1.6936e-06
3829.24	6.82118e-07
3837.91	3.86828e-06
3846.59	4.63372e-07
3855.27	5.8069e-07
3863.95	4.80765e-07
3872.63	3.74906e-07
3881.3	4.84915e-07
3889.98	3.61717e-07
3898.66	5.27409e-07
3907.34	4.7247e-07
3916.02	6.02887e-07
3924.7	7.47003e-07
3933.37	6.8694e-07
3942.05	6.73596e-07
3950.73	6.58131e-07
3959.41	7.34467e-07
3968.09	8.53715e-07
