Infrared Spectrum: 2-Propanone
Formula: C H3 C O C H3
CAS: 67-64-1
State: gas
Melting point: -95.35 C
Boiling point: 56.2 C
Class: IUPAC A
Instrument: IFS66V (Bruker)
Instrument parameters: KBr Beam splitter; MCT Detector; Multipass cell
Sampling: 1 L/min Flow
Resolution: 0.1250
Temperature: 23 C
Pressure: 101.3 kPa
Origin: NIST, Anayltical Chemistry Division, 301-975-3108
cm-1	(micromol/mol)-1m-1 (base 10)
574.988	-2.41194e-08
583.546	-1.04981e-07
592.103	3.7899e-07
600.661	-6.18756e-08
609.219	2.02365e-07
617.776	-2.67032e-08
626.334	-2.87532e-08
634.891	-2.3907e-07
643.449	-3.15086e-07
652.007	2.50165e-07
660.564	8.84315e-08
669.122	-1.68391e-07
677.68	3.2925e-08
686.237	8.89881e-08
694.795	-2.60475e-09
703.352	-9.07779e-08
711.91	9.96772e-08
720.468	2.67275e-07
729.025	4.6144e-07
737.583	7.88197e-07
746.141	1.55385e-06
754.698	3.26425e-06
763.256	5.11988e-06
771.813	6.03604e-06
780.371	6.03714e-06
788.929	5.788e-06
797.486	3.92624e-06
806.044	1.38067e-06
814.602	5.61594e-07
823.159	3.45943e-07
831.717	3.79064e-07
840.274	7.10131e-07
848.832	1.11408e-06
857.39	2.12585e-06
865.947	5.27396e-06
874.505	1.19563e-05
883.063	1.47278e-05
891.62	1.86711e-05
900.178	2.34346e-05
908.735	2.10285e-05
917.293	1.54795e-05
925.851	1.07698e-05
934.408	7.21944e-06
942.966	4.75228e-06
951.524	3.85111e-06
960.081	3.74871e-06
968.639	3.54304e-06
977.196	3.13791e-06
985.754	2.87056e-06
994.312	2.24928e-06
1002.87	1.95959e-06
1011.43	1.82255e-06
1019.98	1.84426e-06
1028.54	1.68037e-06
1037.1	1.9203e-06
1045.66	2.32198e-06
1054.22	2.54694e-06
1062.77	3.11761e-06
1071.33	4.46295e-06
1079.89	5.88397e-06
1088.45	9.54925e-06
1097	9.5233e-06
1105.56	1.02984e-05
1114.12	1.01519e-05
1122.68	7.1474e-06
1131.23	4.47967e-06
1139.79	2.95995e-06
1148.35	2.45224e-06
1156.91	2.49451e-06
1165.46	3.9066e-06
1174.02	8.22187e-06
1182.58	2.09947e-05
1191.14	7.61434e-05
1199.69	0.000200158
1208.25	0.000252702
1216.81	0.000382601
1225.37	0.000259902
1233.93	0.000224036
1242.48	4.99841e-05
1251.04	9.43048e-06
1259.6	4.15066e-06
1268.16	3.02657e-06
1276.71	2.94565e-06
1285.27	3.47692e-06
1293.83	4.5484e-06
1302.39	6.55398e-06
1310.94	9.99057e-06
1319.5	1.64004e-05
1328.06	3.03844e-05
1336.62	6.79471e-05
1345.17	0.000154293
1353.73	0.00023893
1362.29	0.000261285
1370.85	0.000292724
1379.4	0.000242356
1387.96	0.000114646
1396.52	5.85888e-05
1405.08	5.26872e-05
1413.64	6.16906e-05
1422.19	7.38612e-05
1430.75	7.36517e-05
1439.31	8.02282e-05
1447.87	8.0055e-05
1456.42	6.3522e-05
1464.98	4.88495e-05
1473.54	4.27139e-05
1482.1	2.58531e-05
1490.65	2.02581e-05
1499.21	1.7474e-05
1507.77	1.71376e-05
1516.33	1.64277e-05
1524.88	1.67861e-05
1533.44	1.62828e-05
1542	1.81181e-05
1550.56	1.46272e-05
1559.11	1.3926e-05
1567.67	1.20017e-05
1576.23	1.61284e-05
1584.79	8.25127e-06
1593.35	6.74242e-06
1601.9	5.21614e-06
1610.46	4.11384e-06
1619.02	3.48412e-06
1627.58	3.42562e-06
1636.13	3.63163e-06
1644.69	3.98753e-06
1653.25	1.21399e-05
1661.81	6.15444e-06
1670.36	8.74013e-06
1678.92	1.28619e-05
1687.48	1.90869e-05
1696.04	4.13255e-05
1704.59	9.62474e-05
1713.15	0.000227074
1721.71	0.000349745
1730.27	0.000391749
1738.83	0.000518111
1747.38	0.000439258
1755.94	0.000331979
1764.5	0.000218993
1773.06	0.000132572
1781.61	7.65127e-05
1790.17	5.37916e-05
1798.73	3.44696e-05
1807.29	2.15139e-05
1815.84	1.24802e-05
1824.4	7.86329e-06
1832.96	5.47885e-06
1841.52	4.2612e-06
1850.07	2.8705e-06
1858.63	2.09332e-06
1867.19	1.63431e-06
1875.75	1.38668e-06
1884.3	1.13622e-06
1892.86	8.66819e-07
1901.42	7.75697e-07
1909.98	7.76615e-07
1918.54	3.95974e-07
1927.09	3.71633e-07
1935.65	3.89501e-07
1944.21	3.90051e-07
1952.77	5.46528e-07
1961.32	7.50385e-07
1969.88	9.66669e-07
1978.44	1.10593e-06
1987	1.12862e-06
1995.55	1.02571e-06
2004.11	7.02909e-07
2012.67	3.01076e-07
2021.23	1.37409e-07
2029.78	9.3329e-08
2038.34	1.5451e-07
2046.9	1.68887e-07
2055.46	2.87635e-07
2064.01	4.22678e-07
2072.57	6.22495e-07
2081.13	1.15389e-06
2089.69	1.9631e-06
2098.25	2.8492e-06
2106.8	3.82697e-06
2115.36	4.87634e-06
2123.92	5.67452e-06
2132.48	5.69472e-06
2141.03	5.20807e-06
2149.59	4.54652e-06
2158.15	3.09451e-06
2166.71	1.42934e-06
2175.26	8.4406e-07
2183.82	6.0539e-07
2192.38	6.40077e-07
2200.94	5.66582e-07
2209.49	7.57084e-07
2218.05	9.4964e-07
2226.61	1.41454e-06
2235.17	1.80382e-06
2243.72	2.28174e-06
2252.28	2.18183e-06
2260.84	2.18184e-06
2269.4	1.66823e-06
2277.96	1.2838e-06
2286.51	9.35538e-07
2295.07	8.16409e-07
2303.63	6.58223e-07
2312.19	7.58268e-07
2320.74	6.46685e-07
2329.3	7.11263e-07
2337.86	8.09993e-07
2346.42	6.00571e-07
2354.97	5.11059e-07
2363.53	4.02153e-07
2372.09	1.97716e-07
2380.65	2.12997e-07
2389.2	1.20834e-07
2397.76	2.08847e-07
2406.32	4.86227e-07
2414.88	7.6287e-07
2423.44	9.89751e-07
2431.99	9.53958e-07
2440.55	9.84539e-07
2449.11	1.12085e-06
2457.67	4.17091e-07
2466.22	2.98128e-07
2474.78	3.14791e-07
2483.34	3.97998e-07
2491.9	4.44191e-07
2500.45	5.69682e-07
2509.01	5.84552e-07
2517.57	5.70497e-07
2526.13	6.81064e-07
2534.68	8.01085e-07
2543.24	1.14025e-06
2551.8	1.71942e-06
2560.36	2.46012e-06
2568.91	2.66358e-06
2577.47	2.5006e-06
2586.03	2.62385e-06
2594.59	1.50335e-06
2603.15	6.52059e-07
2611.7	4.25373e-07
2620.26	4.37385e-07
2628.82	5.18481e-07
2637.38	5.39532e-07
2645.93	5.75488e-07
2654.49	5.65006e-07
2663.05	4.56836e-07
2671.61	3.22632e-07
2680.16	2.51751e-07
2688.72	3.65747e-07
2697.28	3.41583e-07
2705.84	5.57127e-07
2714.39	6.29994e-07
2722.95	4.70847e-07
2731.51	4.30195e-07
2740.07	4.491e-07
2748.62	5.78294e-07
2757.18	7.27102e-07
2765.74	1.14411e-06
2774.3	1.84227e-06
2782.86	2.26576e-06
2791.41	2.68617e-06
2799.97	3.07137e-06
2808.53	3.0432e-06
2817.09	3.10738e-06
2825.64	3.78831e-06
2834.2	5.48907e-06
2842.76	7.20214e-06
2851.32	8.55312e-06
2859.87	9.20666e-06
2868.43	9.49834e-06
2876.99	8.82468e-06
2885.55	8.57302e-06
2894.1	9.78468e-06
2902.66	1.37493e-05
2911.22	2.21326e-05
2919.78	3.27306e-05
2928.34	3.75502e-05
2936.89	4.20835e-05
2945.45	4.91524e-05
2954.01	4.5422e-05
2962.57	3.8955e-05
2971.12	9.88436e-05
2979.68	3.77932e-05
2988.24	4.54113e-05
2996.8	5.27476e-05
3005.35	5.81735e-05
3013.91	5.82677e-05
3022.47	5.64662e-05
3031.03	5.36314e-05
3039.58	3.39992e-05
3048.14	2.39126e-05
3056.7	2.16431e-05
3065.26	2.06006e-05
3073.81	1.96143e-05
3082.37	1.76889e-05
3090.93	1.52283e-05
3099.49	1.16793e-05
3108.05	8.4863e-06
3116.6	5.76215e-06
3125.16	3.94296e-06
3133.72	2.84168e-06
3142.28	2.2463e-06
3150.83	2.09611e-06
3159.39	1.81163e-06
3167.95	1.71912e-06
3176.51	1.60974e-06
3185.06	1.30057e-06
3193.62	1.21461e-06
3202.18	9.2648e-07
3210.74	8.65392e-07
3219.29	7.37634e-07
3227.85	5.57038e-07
3236.41	5.5786e-07
3244.97	6.91714e-07
3253.52	6.5537e-07
3262.08	4.8244e-07
3270.64	3.92253e-07
3279.2	3.84122e-07
3287.76	4.56309e-07
3296.31	3.73758e-07
3304.87	4.11165e-07
3313.43	3.90849e-07
3321.99	3.16373e-07
3330.54	2.81423e-07
3339.1	3.50806e-07
3347.66	2.75795e-07
3356.22	2.72578e-07
3364.77	3.55624e-07
3373.33	4.38962e-07
3381.89	5.53122e-07
3390.45	7.15517e-07
3399	6.85079e-07
3407.56	7.92354e-07
3416.12	1.33608e-06
3424.68	2.78514e-06
3433.23	5.60719e-06
3441.79	8.30973e-06
3450.35	9.74725e-06
3458.91	1.15068e-05
3467.47	1.05513e-05
3476.02	7.80497e-06
3484.58	4.8804e-06
3493.14	3.13065e-06
3501.7	2.33063e-06
3510.25	1.2075e-06
3518.81	6.81716e-07
3527.37	3.9677e-07
3535.93	2.89753e-07
3544.48	7.33323e-08
3553.04	3.50195e-08
3561.6	5.71726e-08
3570.16	1.61906e-08
3578.71	-1.574e-07
3587.27	-1.28228e-08
3595.83	8.54647e-08
3604.39	-6.46149e-08
3612.95	1.76938e-07
3621.5	5.38139e-08
3630.06	3.71406e-07
3638.62	1.273e-07
3647.18	1.1328e-06
3655.73	2.84825e-07
3664.29	1.35696e-07
3672.85	1.48357e-07
3681.41	1.05459e-07
3689.96	2.11542e-07
3698.52	1.12314e-07
3707.08	2.72026e-07
3715.64	2.04698e-07
3724.19	3.98416e-07
3732.75	4.63665e-07
3741.31	9.77365e-07
3749.87	1.03968e-06
3758.42	3.86108e-07
3766.98	4.39955e-07
3775.54	4.44435e-07
3784.1	6.1542e-07
3792.66	6.35565e-07
3801.21	2.57417e-06
3809.77	7.96708e-07
3818.33	7.86496e-07
3826.89	1.23846e-06
3835.44	7.01727e-07
3844	7.22212e-07
3852.56	7.94082e-07
3861.12	3.71388e-07
3869.67	6.41269e-07
3878.23	3.29733e-07
3886.79	3.1153e-07
3895.35	3.6712e-07
3903.9	7.87567e-07
3912.46	5.76886e-07
3921.02	7.01833e-07
3929.58	7.10358e-07
3938.13	7.36953e-07
3946.69	6.42586e-07
3955.25	8.60379e-07
3963.81	7.89434e-07
3972.37	1.04461e-06
