Infrared Spectrum: 2-Propanone
Formula: C H3 C O C H3
CAS: 67-64-1
State: gas
Melting point: -95.35 C
Boiling point: 56.2 C
Class: IUPAC A
Instrument: IFS66V (Bruker)
Instrument parameters: KBr Beam splitter; MCT Detector; Multipass cell
Sampling: 1 L/min Flow
Resolution: 0.1250
Temperature: 23 C
Pressure: 101.3 kPa
Origin: NIST, Anayltical Chemistry Division, 301-975-3108
cm-1	(micromol/mol)-1m-1 (base 10)
3975.02	1.05896e-06
3966.46	7.80074e-07
3957.9	5.50781e-07
3949.34	7.00176e-07
3940.79	8.9117e-07
3932.23	7.53975e-07
3923.67	6.86877e-07
3915.11	5.54481e-07
3906.56	5.52181e-07
3898	5.8638e-07
3889.44	6.77177e-07
3880.88	3.51688e-07
3872.33	3.04889e-07
3863.77	2.57491e-07
3855.21	5.45881e-07
3846.65	4.18485e-07
3838.09	2.15293e-06
3829.54	5.60281e-07
3820.98	1.23896e-06
3812.42	8.13172e-07
3803.86	7.20275e-07
3795.31	7.35775e-07
3786.75	6.30979e-07
3778.19	5.45181e-07
3769.63	6.76577e-07
3761.08	4.14286e-07
3752.52	2.04793e-06
3743.96	2.82291e-06
3735.4	1.36795e-06
3726.85	5.64781e-07
3718.29	3.72087e-07
3709.73	6.13679e-07
3701.17	3.79887e-07
3692.62	2.38692e-07
3684.06	2.51191e-07
3675.5	5.55281e-07
3666.94	1.26895e-07
3658.38	1.60894e-07
3649.83	1.94693e-07
3641.27	2.03093e-07
3632.71	-7.83472e-08
3624.15	-2.34391e-08
3615.6	7.74372e-08
3607.04	6.55578e-07
3598.48	-1.29492e-08
3589.92	1.37895e-07
3581.37	-4.2048e-08
3572.81	-7.99469e-08
3564.25	3.09682e-08
3555.69	1.75394e-07
3547.14	3.28588e-07
3538.58	1.82794e-07
3530.02	4.60884e-07
3521.46	6.52278e-07
3512.91	1.11496e-06
3504.35	1.80794e-06
3495.79	2.9079e-06
3487.23	4.14186e-06
3478.67	6.97377e-06
3470.12	9.94567e-06
3461.56	1.12496e-05
3453	1.09196e-05
3444.44	9.0407e-06
3435.89	6.47478e-06
3427.33	3.55088e-06
3418.77	1.64094e-06
3410.21	6.65277e-07
3401.66	7.12076e-07
3393.1	7.46875e-07
3384.54	6.98576e-07
3375.98	4.89083e-07
3367.43	2.9689e-07
3358.87	1.52694e-07
3350.31	1.55495e-07
3341.75	3.00289e-07
3333.2	4.45985e-07
3324.64	4.15586e-07
3316.08	4.87483e-07
3307.52	5.05783e-07
3298.96	5.09282e-07
3290.41	5.20982e-07
3281.85	3.02989e-07
3273.29	4.02586e-07
3264.73	5.38982e-07
3256.18	5.47681e-07
3247.62	4.55785e-07
3239.06	6.28278e-07
3230.5	7.92173e-07
3221.95	7.52875e-07
3213.39	7.78074e-07
3204.83	9.17369e-07
3196.27	9.73667e-07
3187.72	1.35995e-06
3179.16	1.58895e-06
3170.6	1.75594e-06
3162.04	1.67094e-06
3153.48	2.09393e-06
3144.93	2.20393e-06
3136.37	2.8819e-06
3127.81	3.60688e-06
3119.25	5.11783e-06
3110.7	7.56475e-06
3102.14	1.07096e-05
3093.58	1.38995e-05
3085.02	1.71194e-05
3076.47	1.90494e-05
3067.91	2.02693e-05
3059.35	2.10093e-05
3050.79	2.27292e-05
3042.24	2.8909e-05
3033.68	4.78984e-05
3025.12	5.74281e-05
3016.56	6.35879e-05
3008.01	5.74081e-05
2999.45	5.54182e-05
2990.89	4.74384e-05
2982.33	3.94587e-05
2973.77	5.25483e-05
2965.22	4.28986e-05
2956.66	4.28486e-05
2948.1	4.93683e-05
2939.54	4.52285e-05
2930.99	3.79687e-05
2922.43	3.46188e-05
2913.87	2.58191e-05
2905.31	1.56995e-05
2896.76	1.06196e-05
2888.2	8.76971e-06
2879.64	8.55571e-06
2871.08	9.32369e-06
2862.53	9.60168e-06
2853.97	8.9367e-06
2845.41	7.71174e-06
2836.85	6.13779e-06
2828.3	4.38785e-06
2819.74	3.25189e-06
2811.18	2.9609e-06
2802.62	3.0139e-06
2794.06	2.81691e-06
2785.51	2.41192e-06
2776.95	1.97693e-06
2768.39	1.26596e-06
2759.83	8.12372e-07
2751.28	6.32378e-07
2742.72	4.36885e-07
2734.16	3.23989e-07
2725.6	3.42488e-07
2717.05	5.22082e-07
2708.49	4.35485e-07
2699.93	3.58287e-07
2691.37	3.55788e-07
2682.82	3.42388e-07
2674.26	3.40188e-07
2665.7	4.91983e-07
2657.14	5.15382e-07
2648.59	5.99779e-07
2640.03	6.45978e-07
2631.47	5.71781e-07
2622.91	4.42085e-07
2614.35	4.68184e-07
2605.8	5.22182e-07
2597.24	1.19996e-06
2588.68	2.54691e-06
2580.12	2.55391e-06
2571.57	2.80691e-06
2563.01	2.51792e-06
2554.45	1.97293e-06
2545.89	1.26296e-06
2537.34	9.30969e-07
2528.78	6.44478e-07
2520.22	6.92077e-07
2511.66	5.59881e-07
2503.11	5.6788e-07
2494.55	4.33485e-07
2485.99	4.47485e-07
2477.43	2.67591e-07
2468.87	2.17292e-07
2460.32	2.68091e-07
2451.76	6.73077e-07
2443.2	1.23996e-06
2434.64	9.24869e-07
2426.09	9.97067e-07
2417.53	7.84073e-07
2408.97	5.50381e-07
2400.41	3.77587e-07
2391.86	1.77194e-07
2383.3	2.34592e-07
2374.74	4.59984e-07
2366.18	2.46391e-07
2357.63	4.55084e-07
2349.07	5.7728e-07
2340.51	5.7688e-07
2331.95	6.80877e-07
2323.4	6.95776e-07
2314.84	7.53675e-07
2306.28	7.16376e-07
2297.72	6.84177e-07
2289.16	8.8107e-07
2280.61	1.12996e-06
2272.05	1.54295e-06
2263.49	2.06193e-06
2254.93	2.33292e-06
2246.38	2.36592e-06
2237.82	1.90094e-06
2229.26	1.64594e-06
2220.7	1.05496e-06
2212.15	8.53571e-07
2203.59	5.8398e-07
2195.03	5.51981e-07
2186.47	5.8698e-07
2177.92	7.69474e-07
2169.36	1.14896e-06
2160.8	2.45792e-06
2152.24	4.25886e-06
2143.69	5.58182e-06
2135.13	5.77281e-06
2126.57	5.73781e-06
2118.01	5.20283e-06
2109.45	3.96887e-06
2100.9	3.1279e-06
2092.34	2.26992e-06
2083.78	1.39195e-06
2075.22	7.29375e-07
2066.67	4.04386e-07
2058.11	2.9149e-07
2049.55	2.21392e-07
2040.99	2.13992e-07
2032.44	1.23095e-07
2023.88	1.41194e-07
2015.32	2.36492e-07
2006.76	6.37778e-07
1998.21	8.96269e-07
1989.65	1.05496e-06
1981.09	1.12096e-06
1972.53	1.05096e-06
1963.97	7.51775e-07
1955.42	6.30178e-07
1946.86	4.46084e-07
1938.3	3.70288e-07
1929.74	3.28089e-07
1921.19	3.99786e-07
1912.63	4.79184e-07
1904.07	7.06076e-07
1895.51	8.48272e-07
1886.96	1.23196e-06
1878.4	1.19896e-06
1869.84	1.53395e-06
1861.28	1.88694e-06
1852.73	2.45592e-06
1844.17	7.27576e-06
1835.61	5.26282e-06
1827.05	6.97777e-06
1818.5	1.07196e-05
1809.94	1.83594e-05
1801.38	3.0619e-05
1792.82	4.99583e-05
1784.26	7.10176e-05
1775.71	0.000103897
1767.15	0.000183494
1758.59	0.00029599
1750.03	0.000409886
1741.48	0.000495683
1732.92	0.000408286
1724.36	0.000374487
1715.8	0.000271891
1707.25	0.000128796
1698.69	5.09983e-05
1690.13	2.32592e-05
1681.57	1.43995e-05
1673.02	9.44469e-06
1664.46	6.42979e-06
1655.9	5.56681e-06
1647.34	5.58581e-06
1638.79	3.45988e-06
1630.23	3.22789e-06
1621.67	3.45088e-06
1613.11	3.78887e-06
1604.55	4.79284e-06
1596	6.17779e-06
1587.44	7.92673e-06
1578.88	9.43868e-06
1570.32	1.15196e-05
1561.77	1.31996e-05
1553.21	1.43195e-05
1544.65	1.53895e-05
1536.09	1.59495e-05
1527.54	1.66494e-05
1518.98	1.59595e-05
1510.42	1.63795e-05
1501.86	1.71694e-05
1493.31	1.86094e-05
1484.75	2.38992e-05
1476.19	3.54388e-05
1467.63	4.31786e-05
1459.08	5.56881e-05
1450.52	7.15576e-05
1441.96	8.00273e-05
1433.4	8.07973e-05
1424.84	7.57575e-05
1416.29	6.56478e-05
1407.73	5.36682e-05
1399.17	5.59182e-05
1390.61	8.76371e-05
1382.06	0.000204893
1373.5	0.00028489
1364.94	0.000325589
1356.38	0.000238792
1347.83	0.000187594
1339.27	8.8937e-05
1330.71	3.82387e-05
1322.15	1.95993e-05
1313.6	1.16996e-05
1305.04	7.31975e-06
1296.48	5.08083e-06
1287.92	3.84787e-06
1279.36	2.9809e-06
1270.81	3.0019e-06
1262.25	3.58088e-06
1253.69	6.81377e-06
1245.13	2.76591e-05
1236.58	0.000159095
1228.02	0.00028879
1219.46	0.00030049
1210.9	0.000240192
1202.35	0.000236292
1193.79	0.000107496
1185.23	3.0479e-05
1176.67	1.05396e-05
1168.12	4.79284e-06
1159.56	2.8709e-06
1151	2.36792e-06
1142.44	2.8869e-06
1133.89	4.02387e-06
1125.33	6.15879e-06
1116.77	9.53068e-06
1108.21	1.06296e-05
1099.65	9.0047e-06
1091.1	1.86794e-05
1082.54	6.12879e-06
1073.98	4.84784e-06
1065.42	3.50988e-06
1056.87	2.68891e-06
1048.31	2.33992e-06
1039.75	1.97393e-06
1031.19	1.79094e-06
1022.64	1.48595e-06
1014.08	1.82494e-06
1005.52	1.79694e-06
996.963	2.08193e-06
988.406	2.77991e-06
979.848	3.16589e-06
971.29	3.36489e-06
962.733	3.65988e-06
954.175	3.79587e-06
945.618	4.34386e-06
937.06	6.14679e-06
928.502	9.49768e-06
919.945	1.37395e-05
911.387	1.95993e-05
902.829	2.24193e-05
894.272	2.40792e-05
885.714	1.56295e-05
877.157	1.36295e-05
868.599	6.94777e-06
860.041	2.65491e-06
851.484	1.15896e-06
842.926	9.50768e-07
834.368	1.67694e-07
825.811	4.09386e-07
817.253	3.50088e-07
808.696	9.99866e-07
800.138	2.9649e-06
791.58	5.28182e-06
783.023	5.74381e-06
774.465	5.85781e-06
765.907	5.39482e-06
757.35	3.93987e-06
748.792	2.06493e-06
740.235	1.18096e-06
731.677	3.15189e-07
723.119	2.01293e-07
714.562	-4.27383e-08
706.004	1.59094e-07
697.446	7.46074e-08
688.889	-8.96866e-08
680.331	-1.72294e-07
671.774	1.61592e-08
663.216	-2.42692e-07
654.658	-1.39795e-07
646.101	-3.90081e-08
637.543	2.13992e-07
628.985	4.44085e-07
620.428	-3.60187e-07
611.87	4.49885e-07
603.313	8.33766e-08
594.755	4.19786e-07
586.197	-3.33488e-07
577.64	-1.29895e-07
