Infrared Spectrum: 2-Propanone
Formula: C H3 C O C H3
CAS: 67-64-1
State: gas
Melting point: -95.35 C
Boiling point: 56.2 C
Class: IUPAC A
Instrument: IFS66V (Bruker)
Instrument parameters: KBr Beam splitter; MCT Detector; Multipass cell
Sampling: 1 L/min Flow
Resolution: 1.9290
Temperature: 23 C
Pressure: 101.3 kPa
Origin: NIST, Anayltical Chemistry Division, 301-975-3108
cm-1	(micromol/mol)-1m-1 (base 10)
574.687	3.57137e-07
583.365	1.57298e-07
592.043	2.40132e-07
600.721	8.96365e-08
609.4	3.22865e-09
618.078	-4.18452e-09
626.756	-2.48024e-08
635.434	-8.50318e-08
644.112	-3.85119e-08
652.79	-2.09208e-08
661.469	-6.74761e-08
670.147	-3.02502e-08
678.825	-5.21341e-08
687.503	-4.61816e-08
696.181	-2.51062e-08
704.859	3.79426e-08
713.537	8.85324e-08
722.216	2.44468e-07
730.894	4.86112e-07
739.572	9.61277e-07
748.25	1.96877e-06
756.928	3.73082e-06
765.606	5.48048e-06
774.285	5.89131e-06
782.963	5.82405e-06
791.641	5.46223e-06
800.319	2.9169e-06
808.997	1.05727e-06
817.675	4.22223e-07
826.353	4.03544e-07
835.032	5.07905e-07
843.71	7.60066e-07
852.388	1.33385e-06
861.066	3.07529e-06
869.744	7.82518e-06
878.422	1.36184e-05
887.101	1.93863e-05
895.779	2.33676e-05
904.457	2.22475e-05
913.135	1.84863e-05
921.813	1.27241e-05
930.491	8.7148e-06
939.169	5.67718e-06
947.848	4.15352e-06
956.526	3.73744e-06
965.204	3.4752e-06
973.882	3.23881e-06
982.56	3.0265e-06
991.238	2.59387e-06
999.917	2.16478e-06
1008.59	1.77308e-06
1017.27	1.68571e-06
1025.95	1.60548e-06
1034.63	1.78775e-06
1043.31	2.14342e-06
1051.99	2.43236e-06
1060.66	2.91318e-06
1069.34	4.07513e-06
1078.02	5.6612e-06
1086.7	7.90544e-06
1095.38	1.38774e-05
1104.05	1.00234e-05
1112.73	1.04606e-05
1121.41	7.68384e-06
1130.09	4.73043e-06
1138.77	3.12704e-06
1147.45	2.43979e-06
1156.12	2.51944e-06
1164.8	3.79448e-06
1173.48	7.79618e-06
1182.16	1.99989e-05
1190.84	7.28868e-05
1199.51	0.000197339
1208.19	0.000252184
1216.87	0.000368629
1225.55	0.000261419
1234.23	0.000216045
1242.9	4.63181e-05
1251.58	8.85031e-06
1260.26	4.04049e-06
1268.94	3.01329e-06
1277.62	2.99006e-06
1286.3	3.63144e-06
1294.97	4.7353e-06
1303.65	6.96887e-06
1312.33	1.08519e-05
1321.01	1.81317e-05
1329.69	3.50177e-05
1338.36	8.13354e-05
1347.04	0.000177653
1355.72	0.000240652
1364.4	0.000311567
1373.08	0.000286455
1381.76	0.000209742
1390.43	8.97009e-05
1399.11	5.45474e-05
1407.79	5.41708e-05
1416.47	6.5972e-05
1425.15	7.58482e-05
1433.82	8.20964e-05
1442.5	7.90831e-05
1451.18	6.95095e-05
1459.86	5.47287e-05
1468.54	4.19995e-05
1477.22	3.3464e-05
1485.89	2.27199e-05
1494.57	1.8423e-05
1503.25	1.67954e-05
1511.93	1.63988e-05
1520.61	1.72499e-05
1529.28	1.6306e-05
1537.96	1.64963e-05
1546.64	1.51248e-05
1555.32	1.43849e-05
1564	1.29584e-05
1572.67	1.08423e-05
1581.35	8.87159e-06
1590.03	7.38862e-06
1598.71	5.7243e-06
1607.39	4.45667e-06
1616.07	4.4969e-06
1624.74	3.48798e-06
1633.42	3.34528e-06
1642.1	3.73809e-06
1650.78	5.108e-06
1659.46	5.89439e-06
1668.13	8.38303e-06
1676.81	1.18013e-05
1685.49	1.83726e-05
1694.17	3.11378e-05
1702.85	7.92017e-05
1711.53	0.00019825
1720.2	0.000332815
1728.88	0.000397987
1737.56	0.000512935
1746.24	0.000454091
1754.92	0.000350089
1763.59	0.000233467
1772.27	0.000136486
1780.95	7.89974e-05
1789.63	5.61746e-05
1798.31	3.54592e-05
1806.98	2.18286e-05
1815.66	1.26328e-05
1824.34	8.00692e-06
1833.02	5.4714e-06
1841.7	4.30384e-06
1850.38	2.78255e-06
1859.05	2.01469e-06
1867.73	1.73278e-06
1876.41	1.34829e-06
1885.09	1.13891e-06
1893.77	9.02384e-07
1902.44	7.34684e-07
1911.12	5.16672e-07
1919.8	3.9293e-07
1928.48	3.57897e-07
1937.16	3.89065e-07
1945.84	4.69103e-07
1954.51	6.11885e-07
1963.19	8.14076e-07
1971.87	1.02027e-06
1980.55	1.13973e-06
1989.23	1.05589e-06
1997.9	8.83651e-07
2006.58	6.02848e-07
2015.26	2.4195e-07
2023.94	1.51354e-07
2032.62	1.46399e-07
2041.3	1.7799e-07
2049.97	2.20133e-07
2058.65	3.16769e-07
2067.33	4.76604e-07
2076.01	7.94247e-07
2084.69	1.44242e-06
2093.36	2.37513e-06
2102.04	3.09964e-06
2110.72	4.13983e-06
2119.4	5.32745e-06
2128.08	5.70261e-06
2136.75	5.57543e-06
2145.43	5.43282e-06
2154.11	3.91071e-06
2162.79	2.08934e-06
2171.47	9.81393e-07
2180.15	6.92084e-07
2188.82	5.49943e-07
2197.5	5.80647e-07
2206.18	6.53174e-07
2214.86	9.00139e-07
2223.54	1.20909e-06
2232.21	1.73888e-06
2240.89	2.07429e-06
2249.57	2.10228e-06
2258.25	2.24797e-06
2266.93	1.82282e-06
2275.61	1.37485e-06
2284.28	1.01561e-06
2292.96	8.35216e-07
2301.64	7.06804e-07
2310.32	7.01126e-07
2319	7.38681e-07
2327.67	8.0992e-07
2336.35	7.59807e-07
2345.03	6.42275e-07
2353.71	5.56133e-07
2362.39	5.57127e-07
2371.06	3.59957e-07
2379.74	1.77267e-07
2388.42	1.4473e-07
2397.1	2.48038e-07
2405.78	4.77686e-07
2414.46	7.33109e-07
2423.13	9.45032e-07
2431.81	9.99909e-07
2440.49	9.76412e-07
2449.17	1.00697e-06
2457.85	3.81038e-07
2466.52	2.87623e-07
2475.2	2.77209e-07
2483.88	3.80295e-07
2492.56	4.61165e-07
2501.24	5.44229e-07
2509.92	6.26699e-07
2518.59	6.03913e-07
2527.27	6.67079e-07
2535.95	8.45551e-07
2544.63	1.18767e-06
2553.31	1.85613e-06
2561.98	2.51973e-06
2570.66	2.76635e-06
2579.34	2.51648e-06
2588.02	2.48906e-06
2596.7	1.24178e-06
2605.38	5.67847e-07
2614.05	4.57684e-07
2622.73	4.59792e-07
2631.41	5.22905e-07
2640.09	5.86254e-07
2648.77	5.66471e-07
2657.44	5.40779e-07
2666.12	4.30017e-07
2674.8	3.12154e-07
2683.48	3.25934e-07
2692.16	3.63384e-07
2700.83	3.85916e-07
2709.51	5.28149e-07
2718.19	5.39108e-07
2726.87	4.49471e-07
2735.55	4.53338e-07
2744.23	4.9389e-07
2752.9	6.3002e-07
2761.58	9.43795e-07
2770.26	1.4361e-06
2778.94	2.14476e-06
2787.62	2.52995e-06
2796.29	2.97913e-06
2804.97	3.0498e-06
2813.65	3.08753e-06
2822.33	3.48314e-06
2831.01	4.77623e-06
2839.69	6.76167e-06
2848.36	8.09689e-06
2857.04	9.08163e-06
2865.72	9.71384e-06
2874.4	8.98435e-06
2883.08	8.50025e-06
2891.75	9.4156e-06
2900.43	1.23784e-05
2909.11	1.94864e-05
2917.79	3.06624e-05
2926.47	3.68734e-05
2935.14	3.92643e-05
2943.82	4.86029e-05
2952.5	4.66302e-05
2961.18	3.91476e-05
2969.86	0.000110971
2978.54	3.81371e-05
2987.21	4.46591e-05
2995.89	5.1936e-05
3004.57	5.81293e-05
3013.25	5.74815e-05
3021.93	5.60868e-05
3030.6	5.42763e-05
3039.28	3.46235e-05
3047.96	2.40807e-05
3056.64	2.16729e-05
3065.32	2.05444e-05
3074	1.95731e-05
3082.67	1.76109e-05
3091.35	1.50013e-05
3100.03	1.14432e-05
3108.71	8.34576e-06
3117.39	5.60186e-06
3126.06	3.81647e-06
3134.74	2.79281e-06
3143.42	2.26137e-06
3152.1	2.04425e-06
3160.78	1.81185e-06
3169.46	1.69522e-06
3178.13	1.54649e-06
3186.81	1.29663e-06
3195.49	1.10483e-06
3204.17	9.0889e-07
3212.85	7.94524e-07
3221.52	7.04217e-07
3230.2	6.49969e-07
3238.88	6.04651e-07
3247.56	5.27336e-07
3256.24	5.09625e-07
3264.91	4.65567e-07
3273.59	4.52294e-07
3282.27	4.62208e-07
3290.95	4.78581e-07
3299.63	4.89625e-07
3308.31	4.79831e-07
3316.98	4.48466e-07
3325.66	3.92988e-07
3334.34	3.11678e-07
3343.02	2.66963e-07
3351.7	2.51126e-07
3360.37	2.7943e-07
3369.05	3.33644e-07
3377.73	5.26825e-07
3386.41	6.29488e-07
3395.09	6.31813e-07
3403.77	7.1702e-07
3412.44	9.68774e-07
3421.12	1.99737e-06
3429.8	4.37611e-06
3438.48	7.44835e-06
3447.16	9.70105e-06
3455.83	1.17107e-05
3464.51	1.11514e-05
3473.19	8.92702e-06
3481.87	5.82453e-06
3490.55	3.56304e-06
3499.22	2.42699e-06
3507.9	1.49471e-06
3516.58	7.80427e-07
3525.26	4.85824e-07
3533.94	2.11148e-07
3542.62	1.2762e-07
3551.29	1.19445e-07
3559.97	8.67417e-08
3568.65	2.07561e-07
3577.33	-4.47928e-08
3586.01	1.52563e-07
3594.68	5.60576e-08
3603.36	-2.09999e-09
3612.04	2.22855e-07
3620.72	2.71521e-07
3629.4	9.30038e-07
3638.08	1.00204e-07
3646.75	4.57528e-07
3655.43	4.34256e-07
3664.11	1.05705e-07
3672.79	2.79903e-07
3681.47	1.92926e-07
3690.14	5.86321e-07
3698.82	2.25757e-07
3707.5	2.80608e-07
3716.18	2.84903e-07
3724.86	4.25416e-07
3733.54	7.2059e-07
3742.21	5.30724e-07
3750.89	1.19944e-06
3759.57	6.83548e-07
3768.25	5.34666e-07
3776.93	5.02993e-07
3785.6	6.47626e-07
3794.28	6.56569e-07
3802.96	1.15281e-06
3811.64	7.32141e-07
3820.32	1.26857e-06
3828.99	6.97242e-07
3837.67	1.62642e-06
3846.35	4.59571e-07
3855.03	1.63221e-06
3863.71	5.94207e-07
3872.39	4.09039e-07
3881.06	5.59664e-07
3889.74	4.42289e-07
3898.42	6.49672e-07
3907.1	5.44243e-07
3915.78	6.62851e-07
3924.45	7.44114e-07
3933.13	7.56571e-07
3941.81	7.15677e-07
3950.49	7.15192e-07
3959.17	7.25925e-07
3967.85	8.49947e-07
