Infrared Spectrum: 2-Propanone
Formula: C H3 C O C H3
CAS: 67-64-1
State: gas
Melting point: -95.35 C
Boiling point: 56.2 C
Class: IUPAC A
Instrument: IFS66V (Bruker)
Instrument parameters: KBr Beam splitter; MCT Detector; Multipass cell
Sampling: 1 L/min Flow
Resolution: 1.9290
Temperature: 23 C
Pressure: 101.3 kPa
Origin: NIST, Anayltical Chemistry Division, 301-975-3108
cm-1	(micromol/mol)-1m-1 (base 10)
574.687	3.2653e-07
583.365	2.52206e-07
592.043	2.93884e-07
600.721	1.18941e-07
609.4	3.74979e-08
618.078	-4.67609e-08
626.756	-2.54573e-08
635.434	-1.33488e-07
644.112	1.36031e-08
652.79	4.86035e-08
661.469	-8.88753e-08
670.147	-1.81805e-08
678.825	-8.47281e-08
687.503	-6.53261e-08
696.181	-4.83607e-08
704.859	8.89872e-08
713.537	7.23591e-08
722.216	1.90722e-07
730.894	5.00011e-07
739.572	9.49023e-07
748.25	1.97645e-06
756.928	3.71655e-06
765.606	5.43095e-06
774.285	5.8628e-06
782.963	5.72023e-06
791.641	5.44949e-06
800.319	2.92036e-06
808.997	1.04887e-06
817.675	4.19379e-07
826.353	4.48126e-07
835.032	4.79611e-07
843.71	7.67634e-07
852.388	1.29105e-06
861.066	3.04122e-06
869.744	7.7715e-06
878.422	1.37428e-05
887.101	2.0836e-05
895.779	2.29332e-05
904.457	2.23439e-05
913.135	1.845e-05
921.813	1.27376e-05
930.491	8.66637e-06
939.169	5.72072e-06
947.848	4.10531e-06
956.526	3.7627e-06
965.204	3.43556e-06
973.882	3.27289e-06
982.56	2.98612e-06
991.238	2.63028e-06
999.917	2.15129e-06
1008.59	1.81943e-06
1017.27	1.6635e-06
1025.95	1.65589e-06
1034.63	1.74447e-06
1043.31	2.20077e-06
1051.99	2.37565e-06
1060.66	2.9743e-06
1069.34	3.98452e-06
1078.02	5.75806e-06
1086.7	7.47613e-06
1095.38	1.23835e-05
1104.05	1.00031e-05
1112.73	1.04986e-05
1121.41	7.67281e-06
1130.09	4.74563e-06
1138.77	3.08142e-06
1147.45	2.48116e-06
1156.12	2.46304e-06
1164.8	3.84187e-06
1173.48	7.67516e-06
1182.16	1.99219e-05
1190.84	7.26789e-05
1199.51	0.000197889
1208.19	0.000252623
1216.87	0.000384942
1225.55	0.000262644
1234.23	0.000216567
1242.9	4.55166e-05
1251.58	8.71682e-06
1260.26	4.01724e-06
1268.94	3.04327e-06
1277.62	2.94731e-06
1286.3	3.68287e-06
1294.97	4.65923e-06
1303.65	7.05686e-06
1312.33	1.07903e-05
1321.01	1.81939e-05
1329.69	3.47181e-05
1338.36	8.12318e-05
1347.04	0.000177432
1355.72	0.000242368
1364.4	0.000282225
1373.08	0.000285712
1381.76	0.00021038
1390.43	8.89097e-05
1399.11	5.4815e-05
1407.79	5.37701e-05
1416.47	6.59313e-05
1425.15	7.57456e-05
1433.82	8.3131e-05
1442.5	7.90126e-05
1451.18	6.85808e-05
1459.86	5.40639e-05
1468.54	4.19915e-05
1477.22	3.31428e-05
1485.89	2.2545e-05
1494.57	1.79677e-05
1503.25	1.69697e-05
1511.93	1.6366e-05
1520.61	1.76239e-05
1529.28	1.62751e-05
1537.96	1.60753e-05
1546.64	1.49008e-05
1555.32	1.39945e-05
1564	1.28422e-05
1572.67	1.0727e-05
1581.35	8.70547e-06
1590.03	7.47458e-06
1598.71	5.674e-06
1607.39	4.50051e-06
1616.07	4.62782e-06
1624.74	3.34265e-06
1633.42	3.22881e-06
1642.1	3.88103e-06
1650.78	4.63873e-06
1659.46	5.99495e-06
1668.13	8.02798e-06
1676.81	1.14949e-05
1685.49	1.8496e-05
1694.17	3.03804e-05
1702.85	7.85617e-05
1711.53	0.000198045
1720.2	0.000333007
1728.88	0.00040043
1737.56	0.000514106
1746.24	0.000454714
1754.92	0.000349341
1763.59	0.000233265
1772.27	0.000134481
1780.95	7.87775e-05
1789.63	5.5456e-05
1798.31	3.52464e-05
1806.98	2.1825e-05
1815.66	1.25925e-05
1824.34	7.91988e-06
1833.02	5.4656e-06
1841.7	4.3339e-06
1850.38	2.85057e-06
1859.05	1.96189e-06
1867.73	1.72656e-06
1876.41	1.3037e-06
1885.09	1.19317e-06
1893.77	8.72702e-07
1902.44	7.46036e-07
1911.12	4.54283e-07
1919.8	3.41482e-07
1928.48	3.35344e-07
1937.16	4.08156e-07
1945.84	4.403e-07
1954.51	6.38429e-07
1963.19	7.9033e-07
1971.87	1.04745e-06
1980.55	1.11401e-06
1989.23	1.0728e-06
1997.9	8.54371e-07
2006.58	6.25264e-07
2015.26	2.05148e-07
2023.94	1.54657e-07
2032.62	1.31132e-07
2041.3	1.98583e-07
2049.97	2.05289e-07
2058.65	3.46183e-07
2067.33	4.55294e-07
2076.01	8.21482e-07
2084.69	1.41931e-06
2093.36	2.4098e-06
2102.04	3.04992e-06
2110.72	4.12511e-06
2119.4	5.30444e-06
2128.08	5.71246e-06
2136.75	5.54625e-06
2145.43	5.57938e-06
2154.11	3.87932e-06
2162.79	2.08289e-06
2171.47	9.52043e-07
2180.15	7.13523e-07
2188.82	5.05332e-07
2197.5	5.97719e-07
2206.18	6.32392e-07
2214.86	9.18852e-07
2223.54	1.19508e-06
2232.21	1.74927e-06
2240.89	2.07356e-06
2249.57	2.10357e-06
2258.25	2.23709e-06
2266.93	1.84802e-06
2275.61	1.36029e-06
2284.28	1.03593e-06
2292.96	8.28544e-07
2301.64	7.07296e-07
2310.32	6.68047e-07
2319	8.22427e-07
2327.67	7.88739e-07
2336.35	7.85491e-07
2345.03	6.18265e-07
2353.71	5.64584e-07
2362.39	5.36737e-07
2371.06	3.79386e-07
2379.74	1.61377e-07
2388.42	1.44007e-07
2397.1	2.31381e-07
2405.78	5.03417e-07
2414.46	7.24205e-07
2423.13	9.68239e-07
2431.81	9.92636e-07
2440.49	9.96984e-07
2449.17	1.0836e-06
2457.85	3.99415e-07
2466.52	2.74533e-07
2475.2	2.86875e-07
2483.88	3.63606e-07
2492.56	4.7058e-07
2501.24	5.30319e-07
2509.92	6.50736e-07
2518.59	6.01194e-07
2527.27	6.62326e-07
2535.95	8.23758e-07
2544.63	1.18835e-06
2553.31	1.84927e-06
2561.98	2.54219e-06
2570.66	2.79026e-06
2579.34	2.52682e-06
2588.02	2.4772e-06
2596.7	1.25549e-06
2605.38	5.62323e-07
2614.05	4.87904e-07
2622.73	4.50326e-07
2631.41	5.17799e-07
2640.09	5.854e-07
2648.77	5.73972e-07
2657.44	5.54987e-07
2666.12	4.5153e-07
2674.8	3.08497e-07
2683.48	3.45671e-07
2692.16	3.57021e-07
2700.83	3.75243e-07
2709.51	5.07031e-07
2718.19	5.45254e-07
2726.87	4.41391e-07
2735.55	4.62366e-07
2744.23	4.97024e-07
2752.9	6.32682e-07
2761.58	9.22865e-07
2770.26	1.42532e-06
2778.94	2.1691e-06
2787.62	2.52269e-06
2796.29	2.97143e-06
2804.97	3.02379e-06
2813.65	3.06059e-06
2822.33	3.48883e-06
2831.01	4.75949e-06
2839.69	6.76485e-06
2848.36	8.09013e-06
2857.04	9.11098e-06
2865.72	9.71267e-06
2874.4	8.97175e-06
2883.08	8.48674e-06
2891.75	9.41069e-06
2900.43	1.23518e-05
2909.11	1.93704e-05
2917.79	3.07386e-05
2926.47	3.68481e-05
2935.14	3.91024e-05
2943.82	4.8549e-05
2952.5	4.66322e-05
2961.18	3.88907e-05
2969.86	0.000133897
2978.54	3.7982e-05
2987.21	4.46077e-05
2995.89	5.20511e-05
3004.57	5.81929e-05
3013.25	5.72323e-05
3021.93	5.63262e-05
3030.6	5.44042e-05
3039.28	3.45716e-05
3047.96	2.40208e-05
3056.64	2.16834e-05
3065.32	2.06014e-05
3074	1.95851e-05
3082.67	1.76556e-05
3091.35	1.50517e-05
3100.03	1.14451e-05
3108.71	8.34154e-06
3117.39	5.60932e-06
3126.06	3.79821e-06
3134.74	2.83013e-06
3143.42	2.25144e-06
3152.1	1.99522e-06
3160.78	1.81492e-06
3169.46	1.70519e-06
3178.13	1.54171e-06
3186.81	1.30973e-06
3195.49	1.09488e-06
3204.17	9.03788e-07
3212.85	8.05049e-07
3221.52	6.77265e-07
3230.2	6.68596e-07
3238.88	6.44304e-07
3247.56	5.12502e-07
3256.24	5.12299e-07
3264.91	4.9725e-07
3273.59	4.28253e-07
3282.27	4.58529e-07
3290.95	4.74146e-07
3299.63	4.78389e-07
3308.31	4.70469e-07
3316.98	4.34603e-07
3325.66	4.18531e-07
3334.34	3.193e-07
3343.02	2.60746e-07
3351.7	2.68867e-07
3360.37	2.64206e-07
3369.05	2.68992e-07
3377.73	5.06849e-07
3386.41	6.51078e-07
3395.09	6.17313e-07
3403.77	7.0295e-07
3412.44	9.49491e-07
3421.12	1.97643e-06
3429.8	4.37358e-06
3438.48	7.45099e-06
3447.16	9.79435e-06
3455.83	1.17117e-05
3464.51	1.11775e-05
3473.19	8.9133e-06
3481.87	5.81629e-06
3490.55	3.59041e-06
3499.22	2.42176e-06
3507.9	1.45533e-06
3516.58	7.3943e-07
3525.26	4.84264e-07
3533.94	1.93576e-07
3542.62	1.96741e-07
3551.29	9.56518e-08
3559.97	1.18777e-07
3568.65	3.17436e-07
3577.33	-3.93305e-08
3586.01	2.64696e-07
3594.68	2.58083e-08
3603.36	-1.20806e-08
3612.04	3.92844e-07
3620.72	4.79332e-08
3629.4	1.32641e-06
3638.08	1.37767e-07
3646.75	7.50952e-07
3655.43	4.32031e-07
3664.11	1.13235e-07
3672.79	2.53377e-07
3681.47	3.07677e-08
3690.14	4.2028e-08
3698.82	2.18548e-07
3707.5	2.41467e-07
3716.18	2.6422e-07
3724.86	5.17562e-07
3733.54	-1.92164e-08
3742.21	5.74027e-07
3750.89	-1.73752e-07
3759.57	9.18155e-07
3768.25	4.71916e-07
3776.93	4.65185e-07
3785.6	6.94877e-07
3794.28	5.67022e-07
3802.96	7.04531e-07
3811.64	9.11247e-07
3820.32	1.3438e-06
3828.99	6.93276e-07
3837.67	2.78748e-06
3846.35	4.91467e-07
3855.03	1.32327e-06
3863.71	3.39144e-07
3872.39	4.31795e-07
3881.06	6.02907e-07
3889.74	2.95625e-07
3898.42	4.22359e-07
3907.1	4.87286e-07
3915.78	5.34617e-07
3924.45	7.71294e-07
3933.13	7.41178e-07
3941.81	6.67179e-07
3950.49	7.53093e-07
3959.17	7.15541e-07
3967.85	8.51221e-07
