Infrared Spectrum: 2-Propanone
Formula: C H3 C O C H3
CAS: 67-64-1
State: gas
Melting point: -95.35 C
Boiling point: 56.2 C
Class: IUPAC A
Instrument: IFS66V (Bruker)
Instrument parameters: KBr Beam splitter; MCT Detector; Multipass cell
Sampling: 1 L/min Flow
Resolution: 0.9640
Temperature: 23 C
Pressure: 101.3 kPa
Origin: NIST, Anayltical Chemistry Division, 301-975-3108
cm-1	(micromol/mol)-1m-1 (base 10)
575.169	2.1355e-07
583.847	1.3721e-07
592.525	2.19549e-07
601.203	6.66694e-08
609.882	3.51732e-08
618.56	-3.69131e-08
627.238	1.40096e-08
635.916	-2.87596e-08
644.594	1.97685e-08
653.272	-4.46582e-08
661.951	-6.58491e-08
670.629	-9.69724e-08
679.307	-8.54384e-08
687.985	-5.9791e-08
696.663	-7.223e-08
705.341	7.29539e-08
714.019	6.64839e-08
722.698	2.59155e-07
731.376	5.05224e-07
740.054	9.9344e-07
748.732	2.04616e-06
757.41	3.81432e-06
766.088	5.49452e-06
774.767	5.86779e-06
783.445	5.83047e-06
792.123	5.33999e-06
800.801	2.75732e-06
809.479	1.03271e-06
818.157	4.38923e-07
826.835	4.07205e-07
835.514	4.93357e-07
844.192	7.57523e-07
852.87	1.3645e-06
861.548	3.23132e-06
870.226	8.18515e-06
878.904	1.34672e-05
887.583	1.97143e-05
896.261	2.27733e-05
904.939	2.21478e-05
913.617	1.81761e-05
922.295	1.2478e-05
930.973	8.50543e-06
939.651	5.52396e-06
948.33	4.08382e-06
957.008	3.7386e-06
965.686	3.42673e-06
974.364	3.22788e-06
983.042	3.00563e-06
991.72	2.54719e-06
1000.4	2.18818e-06
1009.08	1.75926e-06
1017.75	1.67272e-06
1026.43	1.60276e-06
1035.11	1.79591e-06
1043.79	2.17762e-06
1052.47	2.44828e-06
1061.15	2.9516e-06
1069.82	4.14655e-06
1078.5	5.7476e-06
1087.18	8.25651e-06
1095.86	1.00101e-05
1104.54	1.01495e-05
1113.21	1.04074e-05
1121.89	7.52809e-06
1130.57	4.59489e-06
1139.25	3.05364e-06
1147.93	2.40696e-06
1156.61	2.54279e-06
1165.28	3.92241e-06
1173.96	8.13257e-06
1182.64	2.11566e-05
1191.32	7.79168e-05
1200	0.000205233
1208.67	0.000250146
1217.35	0.000389558
1226.03	0.000269046
1234.71	0.000205125
1243.39	4.09328e-05
1252.07	8.22608e-06
1260.74	3.91377e-06
1269.42	2.99385e-06
1278.1	3.00952e-06
1286.78	3.70475e-06
1295.46	4.79176e-06
1304.13	7.09326e-06
1312.81	1.10868e-05
1321.49	1.86679e-05
1330.17	3.64276e-05
1338.85	8.51518e-05
1347.52	0.000183554
1356.2	0.000239692
1364.88	0.000339217
1373.56	0.000284815
1382.24	0.000201571
1390.92	8.53638e-05
1399.59	5.40381e-05
1408.27	5.47891e-05
1416.95	6.64398e-05
1425.63	7.59376e-05
1434.31	8.44069e-05
1442.98	7.82858e-05
1451.66	6.78691e-05
1460.34	5.39529e-05
1469.02	4.13323e-05
1477.7	3.28988e-05
1486.38	2.20686e-05
1495.05	1.81777e-05
1503.73	1.66999e-05
1512.41	1.6638e-05
1521.09	1.8353e-05
1529.77	1.61181e-05
1538.44	1.67076e-05
1547.12	1.49572e-05
1555.8	1.39076e-05
1564.48	1.29679e-05
1573.16	1.07069e-05
1581.83	8.79201e-06
1590.51	7.30779e-06
1599.19	5.64589e-06
1607.87	4.39111e-06
1616.55	5.82627e-06
1625.23	3.29989e-06
1633.9	3.27545e-06
1642.58	3.80408e-06
1651.26	4.9945e-06
1659.94	5.93933e-06
1668.62	8.74985e-06
1677.29	1.1911e-05
1685.97	1.76425e-05
1694.65	3.20785e-05
1703.33	8.29971e-05
1712.01	0.00020664
1720.69	0.000338458
1729.36	0.000397502
1738.04	0.000515789
1746.72	0.000448352
1755.4	0.000340943
1764.08	0.000225679
1772.75	0.000133782
1781.43	7.71668e-05
1790.11	5.41072e-05
1798.79	3.43456e-05
1807.47	2.12874e-05
1816.15	1.22421e-05
1824.82	7.97501e-06
1833.5	5.35987e-06
1842.18	4.23738e-06
1850.86	2.71035e-06
1859.54	1.96577e-06
1868.21	1.72909e-06
1876.89	1.33057e-06
1885.57	1.12935e-06
1894.25	8.96522e-07
1902.93	7.17431e-07
1911.6	4.89792e-07
1920.28	3.54347e-07
1928.96	3.57208e-07
1937.64	3.98278e-07
1946.32	4.81702e-07
1955	6.28813e-07
1963.67	8.27977e-07
1972.35	1.01449e-06
1981.03	1.14442e-06
1989.71	1.01897e-06
1998.39	8.74314e-07
2007.06	5.70326e-07
2015.74	2.14403e-07
2024.42	1.45359e-07
2033.1	1.56584e-07
2041.78	1.86006e-07
2050.46	2.14298e-07
2059.13	3.34586e-07
2067.81	4.84582e-07
2076.49	8.22551e-07
2085.17	1.48991e-06
2093.85	2.44054e-06
2102.52	3.08308e-06
2111.2	4.20363e-06
2119.88	5.3683e-06
2128.56	5.70369e-06
2137.24	5.48061e-06
2145.91	5.27285e-06
2154.59	3.82473e-06
2163.27	1.99283e-06
2171.95	9.35427e-07
2180.63	6.79807e-07
2189.31	5.47834e-07
2197.98	5.88106e-07
2206.66	6.47717e-07
2215.34	8.92732e-07
2224.02	1.25014e-06
2232.7	1.75682e-06
2241.37	2.09796e-06
2250.05	2.10043e-06
2258.73	2.24368e-06
2267.41	1.80039e-06
2276.09	1.34993e-06
2284.77	1.00496e-06
2293.44	8.27353e-07
2302.12	6.8973e-07
2310.8	7.20746e-07
2319.48	7.38259e-07
2328.16	7.96755e-07
2336.83	6.37418e-07
2345.51	6.32642e-07
2354.19	5.86977e-07
2362.87	6.22096e-07
2371.55	3.5993e-07
2380.23	1.80085e-07
2388.9	1.37783e-07
2397.58	2.51455e-07
2406.26	4.84261e-07
2414.94	7.37081e-07
2423.62	9.70999e-07
2432.29	9.91419e-07
2440.97	9.87732e-07
2449.65	1.10715e-06
2458.33	3.52345e-07
2467.01	2.82237e-07
2475.68	2.79257e-07
2484.36	3.75323e-07
2493.04	4.69334e-07
2501.72	5.44869e-07
2510.4	6.37454e-07
2519.08	5.99205e-07
2527.75	6.63007e-07
2536.43	8.71539e-07
2545.11	1.1941e-06
2553.79	1.91857e-06
2562.47	2.54534e-06
2571.14	2.77052e-06
2579.82	2.50205e-06
2588.5	2.45589e-06
2597.18	1.17244e-06
2605.86	5.45989e-07
2614.54	4.63729e-07
2623.21	4.61356e-07
2631.89	5.07981e-07
2640.57	5.86407e-07
2649.25	5.65466e-07
2657.93	5.31855e-07
2666.6	4.26163e-07
2675.28	3.06782e-07
2683.96	3.40158e-07
2692.64	3.58855e-07
2701.32	3.85482e-07
2709.99	5.27084e-07
2718.67	5.44266e-07
2727.35	4.63987e-07
2736.03	4.59688e-07
2744.71	5.11244e-07
2753.39	6.36612e-07
2762.06	9.6722e-07
2770.74	1.47361e-06
2779.42	2.15651e-06
2788.1	2.54246e-06
2796.78	3.00988e-06
2805.45	3.03283e-06
2814.13	3.09883e-06
2822.81	3.51512e-06
2831.49	4.8883e-06
2840.17	6.86602e-06
2848.85	8.14843e-06
2857.52	9.1321e-06
2866.2	9.68053e-06
2874.88	8.96064e-06
2883.56	8.49346e-06
2892.24	9.6036e-06
2900.91	1.26293e-05
2909.59	1.99787e-05
2918.27	3.12641e-05
2926.95	3.70041e-05
2935.63	3.98805e-05
2944.31	4.87718e-05
2952.98	4.62822e-05
2961.66	3.88672e-05
2970.34	0.000127284
2979.02	3.77105e-05
2987.7	4.50792e-05
2996.37	5.24029e-05
3005.05	5.82273e-05
3013.73	5.79313e-05
3022.41	5.64049e-05
3031.09	5.35718e-05
3039.76	3.35666e-05
3048.44	2.37753e-05
3057.12	2.15805e-05
3065.8	2.04931e-05
3074.48	1.94924e-05
3083.16	1.75106e-05
3091.83	1.47873e-05
3100.51	1.12945e-05
3109.19	8.20749e-06
3117.87	5.50019e-06
3126.55	3.7301e-06
3135.22	2.76219e-06
3143.9	2.23128e-06
3152.58	2.0661e-06
3161.26	1.78166e-06
3169.94	1.6872e-06
3178.62	1.52163e-06
3187.29	1.27508e-06
3195.97	1.11035e-06
3204.65	9.04833e-07
3213.33	7.50838e-07
3222.01	7.15629e-07
3230.68	6.63919e-07
3239.36	5.85109e-07
3248.04	5.24861e-07
3256.72	5.2316e-07
3265.4	4.54863e-07
3274.07	4.29275e-07
3282.75	4.67447e-07
3291.43	5.01038e-07
3300.11	5.24009e-07
3308.79	4.88707e-07
3317.47	4.70284e-07
3326.14	3.82678e-07
3334.82	3.33247e-07
3343.5	2.68778e-07
3352.18	2.76182e-07
3360.86	2.45374e-07
3369.53	3.06481e-07
3378.21	5.69358e-07
3386.89	6.58623e-07
3395.57	6.20188e-07
3404.25	7.07014e-07
3412.93	9.95194e-07
3421.6	2.0806e-06
3430.28	4.53836e-06
3438.96	7.60754e-06
3447.64	9.82105e-06
3456.32	1.16733e-05
3464.99	1.11108e-05
3473.67	8.74392e-06
3482.35	5.65956e-06
3491.03	3.52046e-06
3499.71	2.39887e-06
3508.39	1.46147e-06
3517.06	7.49607e-07
3525.74	4.97752e-07
3534.42	1.95432e-07
3543.1	1.60909e-07
3551.78	1.36491e-07
3560.45	1.14994e-07
3569.13	4.15787e-08
3577.81	-8.13321e-08
3586.49	4.27438e-07
3595.17	1.41686e-07
3603.84	-2.67796e-08
3612.52	5.95355e-07
3621.2	1.58467e-07
3629.88	1.17436e-06
3638.56	1.29264e-07
3647.24	7.86603e-07
3655.91	7.90837e-07
3664.59	8.43525e-08
3673.27	1.59298e-07
3681.95	1.42969e-07
3690.63	5.03657e-07
3699.3	2.4494e-07
3707.98	2.45289e-07
3716.66	2.85798e-07
3725.34	4.24334e-07
3734.02	5.7264e-07
3742.7	4.14737e-07
3751.37	8.13315e-07
3760.05	9.12103e-07
3768.73	4.75652e-07
3777.41	5.05832e-07
3786.09	5.69287e-07
3794.76	6.72807e-07
3803.44	9.18617e-07
3812.12	7.69694e-07
3820.8	1.63784e-06
3829.48	6.65611e-07
3838.16	2.49281e-06
3846.83	4.62695e-07
3855.51	5.08374e-07
3864.19	5.75435e-07
3872.87	3.54077e-07
3881.55	4.18103e-07
3890.22	3.55203e-07
3898.9	8.46655e-07
3907.58	4.82717e-07
3916.26	6.74634e-07
3924.94	8.40738e-07
3933.61	6.77249e-07
3942.29	7.66314e-07
3950.97	6.77465e-07
3959.65	7.38043e-07
3968.33	8.59737e-07
