Infrared Spectrum: 2-Propanone
Formula: C H3 C O C H3
CAS: 67-64-1
State: gas
Melting point: -95.35 C
Boiling point: 56.2 C
Class: IUPAC A
Instrument: IFS66V (Bruker)
Instrument parameters: KBr Beam splitter; MCT Detector; Multipass cell
Sampling: 1 L/min Flow
Resolution: 0.1250
Temperature: 23 C
Pressure: 101.3 kPa
Origin: NIST, Anayltical Chemistry Division, 301-975-3108
cm-1	(micromol/mol)-1m-1 (base 10)
574.988	1.4361e-07
583.546	-1.48763e-07
592.103	3.75618e-07
600.661	-9.20767e-08
609.219	2.22603e-07
617.776	-2.4114e-08
626.334	-1.54384e-08
634.891	-2.28738e-07
643.449	-3.57313e-07
652.007	2.86845e-07
660.564	1.052e-07
669.122	-1.70962e-07
677.68	3.62637e-08
686.237	1.35643e-07
694.795	3.63319e-08
703.352	-7.23228e-08
711.91	1.08996e-07
720.468	2.62913e-07
729.025	4.5227e-07
737.583	7.90357e-07
746.141	1.54283e-06
754.698	3.26492e-06
763.256	5.11394e-06
771.813	6.01577e-06
780.371	6.06343e-06
788.929	5.74763e-06
797.486	3.94592e-06
806.044	1.3666e-06
814.602	5.85926e-07
823.159	3.45173e-07
831.717	3.77135e-07
840.274	7.27983e-07
848.832	1.13546e-06
857.39	2.12606e-06
865.947	5.28674e-06
874.505	1.19535e-05
883.063	1.47186e-05
891.62	1.86679e-05
900.178	2.34512e-05
908.735	2.10293e-05
917.293	1.54864e-05
925.851	1.07665e-05
934.408	7.23183e-06
942.966	4.73401e-06
951.524	3.84226e-06
960.081	3.75085e-06
968.639	3.53483e-06
977.196	3.15041e-06
985.754	2.88257e-06
994.312	2.24043e-06
1002.87	1.9674e-06
1011.43	1.8261e-06
1019.98	1.83389e-06
1028.54	1.6949e-06
1037.1	1.91727e-06
1045.66	2.34292e-06
1054.22	2.5493e-06
1062.77	3.1191e-06
1071.33	4.47625e-06
1079.89	5.87602e-06
1088.45	9.54279e-06
1097	9.50384e-06
1105.56	1.02947e-05
1114.12	1.01412e-05
1122.68	7.1357e-06
1131.23	4.4921e-06
1139.79	2.94518e-06
1148.35	2.45955e-06
1156.91	2.48734e-06
1165.46	3.88751e-06
1174.02	8.22435e-06
1182.58	2.10002e-05
1191.14	7.61621e-05
1199.69	0.000200088
1208.25	0.000252773
1216.81	0.00038266
1225.37	0.000259914
1233.93	0.000224142
1242.48	4.99633e-05
1251.04	9.43836e-06
1259.6	4.15956e-06
1268.16	3.02391e-06
1276.71	2.94374e-06
1285.27	3.48078e-06
1293.83	4.53901e-06
1302.39	6.55223e-06
1310.94	9.98937e-06
1319.5	1.64008e-05
1328.06	3.03824e-05
1336.62	6.79669e-05
1345.17	0.000154268
1353.73	0.0002389
1362.29	0.000261186
1370.85	0.000292768
1379.4	0.000242476
1387.96	0.00011465
1396.52	5.86042e-05
1405.08	5.26819e-05
1413.64	6.168e-05
1422.19	7.38241e-05
1430.75	7.36348e-05
1439.31	8.02205e-05
1447.87	8.00847e-05
1456.42	6.34985e-05
1464.98	4.88654e-05
1473.54	4.29353e-05
1482.1	2.58509e-05
1490.65	2.02275e-05
1499.21	1.7461e-05
1507.77	1.71445e-05
1516.33	1.64379e-05
1524.88	1.67898e-05
1533.44	1.62654e-05
1542	1.8105e-05
1550.56	1.46221e-05
1559.11	1.39248e-05
1567.67	1.20089e-05
1576.23	1.63477e-05
1584.79	8.25275e-06
1593.35	6.73453e-06
1601.9	5.23046e-06
1610.46	4.11663e-06
1619.02	3.48582e-06
1627.58	3.41247e-06
1636.13	3.62639e-06
1644.69	3.98553e-06
1653.25	1.24783e-05
1661.81	6.15172e-06
1670.36	8.74136e-06
1678.92	1.28598e-05
1687.48	1.90942e-05
1696.04	4.11793e-05
1704.59	9.61968e-05
1713.15	0.000227097
1721.71	0.000349769
1730.27	0.000391714
1738.83	0.000518079
1747.38	0.000439228
1755.94	0.000331988
1764.5	0.000218993
1773.06	0.000132517
1781.61	7.65096e-05
1790.17	5.37965e-05
1798.73	3.44798e-05
1807.29	2.15219e-05
1815.84	1.24883e-05
1824.4	7.85977e-06
1832.96	5.47957e-06
1841.52	4.25891e-06
1850.07	2.87627e-06
1858.63	2.09545e-06
1867.19	1.64552e-06
1875.75	1.39594e-06
1884.3	1.12907e-06
1892.86	8.66921e-07
1901.42	7.81673e-07
1909.98	7.85012e-07
1918.54	3.95517e-07
1927.09	3.6996e-07
1935.65	3.88322e-07
1944.21	3.88531e-07
1952.77	5.35759e-07
1961.32	7.42841e-07
1969.88	9.63645e-07
1978.44	1.10578e-06
1987	1.13782e-06
1995.55	1.02899e-06
2004.11	7.00419e-07
2012.67	2.98866e-07
2021.23	1.42062e-07
2029.78	8.32502e-08
2038.34	1.54454e-07
2046.9	1.62389e-07
2055.46	2.81382e-07
2064.01	4.24297e-07
2072.57	6.14717e-07
2081.13	1.15229e-06
2089.69	1.95827e-06
2098.25	2.85451e-06
2106.8	3.82368e-06
2115.36	4.88988e-06
2123.92	5.68044e-06
2132.48	5.69953e-06
2141.03	5.20348e-06
2149.59	4.54019e-06
2158.15	3.09771e-06
2166.71	1.43153e-06
2175.26	8.34845e-07
2183.82	5.99114e-07
2192.38	6.33579e-07
2200.94	5.6937e-07
2209.49	7.63142e-07
2218.05	9.55174e-07
2226.61	1.39941e-06
2235.17	1.80287e-06
2243.72	2.27702e-06
2252.28	2.18754e-06
2260.84	2.18561e-06
2269.4	1.66846e-06
2277.96	1.28593e-06
2286.51	9.28496e-07
2295.07	8.1346e-07
2303.63	6.53765e-07
2312.19	7.6264e-07
2320.74	6.44001e-07
2329.3	7.1252e-07
2337.86	8.00546e-07
2346.42	6.05719e-07
2354.97	5.23359e-07
2363.53	4.08424e-07
2372.09	1.85336e-07
2380.65	2.18494e-07
2389.2	1.17818e-07
2397.76	2.03736e-07
2406.32	4.91931e-07
2414.88	7.70156e-07
2423.44	9.91149e-07
2431.99	9.45739e-07
2440.55	9.77037e-07
2449.11	1.13993e-06
2457.67	4.20635e-07
2466.22	3.02166e-07
2474.78	3.21912e-07
2483.34	3.92761e-07
2491.9	4.43379e-07
2500.45	5.8018e-07
2509.01	5.75403e-07
2517.57	5.66705e-07
2526.13	6.87286e-07
2534.68	7.89072e-07
2543.24	1.14091e-06
2551.8	1.71647e-06
2560.36	2.4683e-06
2568.91	2.66593e-06
2577.47	2.49707e-06
2586.03	2.61497e-06
2594.59	1.49146e-06
2603.15	6.60992e-07
2611.7	4.14039e-07
2620.26	4.42108e-07
2628.82	5.19105e-07
2637.38	5.31488e-07
2645.93	5.75214e-07
2654.49	5.66418e-07
2663.05	4.43218e-07
2671.61	3.24408e-07
2680.16	2.38763e-07
2688.72	3.58319e-07
2697.28	3.32072e-07
2705.84	5.65761e-07
2714.39	6.33913e-07
2722.95	4.71268e-07
2731.51	4.43622e-07
2740.07	4.45092e-07
2748.62	6.01654e-07
2757.18	7.2251e-07
2765.74	1.15546e-06
2774.3	1.84181e-06
2782.86	2.26754e-06
2791.41	2.68794e-06
2799.97	3.07705e-06
2808.53	3.04263e-06
2817.09	3.11003e-06
2825.64	3.79788e-06
2834.2	5.4752e-06
2842.76	7.19407e-06
2851.32	8.57246e-06
2859.87	9.20084e-06
2868.43	9.47528e-06
2876.99	8.83398e-06
2885.55	8.57644e-06
2894.1	9.76804e-06
2902.66	1.37341e-05
2911.22	2.21247e-05
2919.78	3.27073e-05
2928.34	3.75499e-05
2936.89	4.20699e-05
2945.45	4.91787e-05
2954.01	4.54168e-05
2962.57	3.89727e-05
2971.12	9.88111e-05
2979.68	3.77851e-05
2988.24	4.53893e-05
2996.8	5.27387e-05
3005.35	5.81609e-05
3013.91	5.82855e-05
3022.47	5.64739e-05
3031.03	5.36391e-05
3039.58	3.40169e-05
3048.14	2.3898e-05
3056.7	2.16535e-05
3065.26	2.06095e-05
3073.81	1.96134e-05
3082.37	1.76706e-05
3090.93	1.52121e-05
3099.49	1.16877e-05
3108.05	8.47462e-06
3116.6	5.75744e-06
3125.16	3.92927e-06
3133.72	2.85324e-06
3142.28	2.22342e-06
3150.83	2.08175e-06
3159.39	1.81294e-06
3167.95	1.70962e-06
3176.51	1.61321e-06
3185.06	1.28984e-06
3193.62	1.24495e-06
3202.18	9.27691e-07
3210.74	8.48042e-07
3219.29	7.35211e-07
3227.85	5.54684e-07
3236.41	5.34854e-07
3244.97	7.20246e-07
3253.52	6.67595e-07
3262.08	4.76253e-07
3270.64	3.99711e-07
3279.2	3.68207e-07
3287.76	4.55664e-07
3296.31	3.65176e-07
3304.87	4.31181e-07
3313.43	3.58876e-07
3321.99	3.16166e-07
3330.54	2.82442e-07
3339.1	3.58944e-07
3347.66	2.75153e-07
3356.22	2.56851e-07
3364.77	3.57734e-07
3373.33	4.38836e-07
3381.89	5.55713e-07
3390.45	7.36863e-07
3399	6.66095e-07
3407.56	7.91514e-07
3416.12	1.33722e-06
3424.68	2.7944e-06
3433.23	5.57972e-06
3441.79	8.31099e-06
3450.35	9.77259e-06
3458.91	1.15021e-05
3467.47	1.05395e-05
3476.02	7.79237e-06
3484.58	4.86555e-06
3493.14	3.11451e-06
3501.7	2.3203e-06
3510.25	1.22592e-06
3518.81	6.787e-07
3527.37	3.93222e-07
3535.93	2.9126e-07
3544.48	7.3054e-08
3553.04	1.64325e-08
3561.6	5.55065e-08
3570.16	2.07625e-08
3578.71	-1.56039e-07
3587.27	-3.06849e-08
3595.83	8.74629e-08
3604.39	-7.69265e-08
3612.95	1.60862e-07
3621.5	7.37788e-08
3630.06	3.7237e-07
3638.62	1.17554e-07
3647.18	1.17753e-06
3655.73	2.7527e-07
3664.29	1.51806e-07
3672.85	1.57704e-07
3681.41	1.02684e-07
3689.96	2.10509e-07
3698.52	8.24689e-08
3707.08	2.69039e-07
3715.64	2.05066e-07
3724.19	4.01993e-07
3732.75	4.65684e-07
3741.31	1.01851e-06
3749.87	1.01292e-06
3758.42	3.69773e-07
3766.98	4.38133e-07
3775.54	4.6119e-07
3784.1	6.14666e-07
3792.66	6.45148e-07
3801.21	2.48671e-06
3809.77	7.87519e-07
3818.33	7.81633e-07
3826.89	1.23438e-06
3835.44	6.93404e-07
3844	7.14179e-07
3852.56	7.76534e-07
3861.12	3.47295e-07
3869.67	6.48326e-07
3878.23	3.28979e-07
3886.79	3.32464e-07
3895.35	3.62673e-07
3903.9	7.62694e-07
3912.46	5.85139e-07
3921.02	7.22928e-07
3929.58	7.18389e-07
3938.13	7.4011e-07
3946.69	6.36999e-07
3955.25	8.74518e-07
3963.81	8.18188e-07
3972.37	1.04868e-06
