Infrared Spectrum: 2-Propanone
Formula: C H3 C O C H3
CAS: 67-64-1
State: gas
Melting point: -95.35 C
Boiling point: 56.2 C
Class: IUPAC A
Instrument: IFS66V (Bruker)
Instrument parameters: KBr Beam splitter; MCT Detector; Multipass cell
Sampling: 1 L/min Flow
Resolution: 0.1250
Temperature: 23 C
Pressure: 101.3 kPa
Origin: NIST, Anayltical Chemistry Division, 301-975-3108
cm-1	(micromol/mol)-1m-1 (base 10)
574.988	1.36135e-07
583.546	-1.37005e-07
592.103	3.71599e-07
600.661	-9.14828e-08
609.219	2.22552e-07
617.776	-2.16438e-08
626.334	-1.63279e-08
634.891	-2.28548e-07
643.449	-3.54581e-07
652.007	2.848e-07
660.564	1.04483e-07
669.122	-1.69353e-07
677.68	3.74224e-08
686.237	1.3322e-07
694.795	3.50686e-08
703.352	-7.27175e-08
711.91	1.06928e-07
720.468	2.62472e-07
729.025	4.51944e-07
737.583	7.90356e-07
746.141	1.54222e-06
754.698	3.26468e-06
763.256	5.1146e-06
771.813	6.01634e-06
780.371	6.06198e-06
788.929	5.74983e-06
797.486	3.94488e-06
806.044	1.36793e-06
814.602	5.82641e-07
823.159	3.46271e-07
831.717	3.76767e-07
840.274	7.28285e-07
848.832	1.13246e-06
857.39	2.12629e-06
865.947	5.28662e-06
874.505	1.19544e-05
883.063	1.47192e-05
891.62	1.86675e-05
900.178	2.34503e-05
908.735	2.10282e-05
917.293	1.54866e-05
925.851	1.07665e-05
934.408	7.23109e-06
942.966	4.73573e-06
951.524	3.84346e-06
960.081	3.7509e-06
968.639	3.5355e-06
977.196	3.14991e-06
985.754	2.88195e-06
994.312	2.24071e-06
1002.87	1.96622e-06
1011.43	1.82542e-06
1019.98	1.83425e-06
1028.54	1.69389e-06
1037.1	1.91759e-06
1045.66	2.34134e-06
1054.22	2.54964e-06
1062.77	3.11912e-06
1071.33	4.4758e-06
1079.89	5.87574e-06
1088.45	9.54331e-06
1097	9.50375e-06
1105.56	1.02951e-05
1114.12	1.01419e-05
1122.68	7.13676e-06
1131.23	4.49095e-06
1139.79	2.94592e-06
1148.35	2.45885e-06
1156.91	2.48817e-06
1165.46	3.8884e-06
1174.02	8.22375e-06
1182.58	2.1e-05
1191.14	7.61611e-05
1199.69	0.000200093
1208.25	0.000252769
1216.81	0.000382653
1225.37	0.000259912
1233.93	0.000224131
1242.48	4.99654e-05
1251.04	9.43843e-06
1259.6	4.1592e-06
1268.16	3.02361e-06
1276.71	2.94426e-06
1285.27	3.48014e-06
1293.83	4.54015e-06
1302.39	6.55189e-06
1310.94	9.98948e-06
1319.5	1.64013e-05
1328.06	3.0382e-05
1336.62	6.79643e-05
1345.17	0.00015427
1353.73	0.000238907
1362.29	0.000261195
1370.85	0.000292764
1379.4	0.000242467
1387.96	0.000114651
1396.52	5.86032e-05
1405.08	5.26818e-05
1413.64	6.1681e-05
1422.19	7.38267e-05
1430.75	7.36355e-05
1439.31	8.02215e-05
1447.87	8.00811e-05
1456.42	6.34963e-05
1464.98	4.88621e-05
1473.54	4.2914e-05
1482.1	2.58509e-05
1490.65	2.02314e-05
1499.21	1.74619e-05
1507.77	1.71438e-05
1516.33	1.64362e-05
1524.88	1.67895e-05
1533.44	1.62677e-05
1542	1.81067e-05
1550.56	1.46227e-05
1559.11	1.39252e-05
1567.67	1.2009e-05
1576.23	1.63236e-05
1584.79	8.25244e-06
1593.35	6.73506e-06
1601.9	5.22946e-06
1610.46	4.11662e-06
1619.02	3.48587e-06
1627.58	3.41386e-06
1636.13	3.62706e-06
1644.69	3.98614e-06
1653.25	1.24473e-05
1661.81	6.15178e-06
1670.36	8.74088e-06
1678.92	1.28601e-05
1687.48	1.90945e-05
1696.04	4.11886e-05
1704.59	9.62012e-05
1713.15	0.000227096
1721.71	0.000349768
1730.27	0.000391718
1738.83	0.000518081
1747.38	0.000439229
1755.94	0.000331987
1764.5	0.000218993
1773.06	0.000132522
1781.61	7.65108e-05
1790.17	5.37963e-05
1798.73	3.44792e-05
1807.29	2.15212e-05
1815.84	1.2488e-05
1824.4	7.85935e-06
1832.96	5.47986e-06
1841.52	4.25885e-06
1850.07	2.87555e-06
1858.63	2.09529e-06
1867.19	1.64497e-06
1875.75	1.3957e-06
1884.3	1.12899e-06
1892.86	8.67317e-07
1901.42	7.81385e-07
1909.98	7.83682e-07
1918.54	3.96038e-07
1927.09	3.69966e-07
1935.65	3.87822e-07
1944.21	3.88891e-07
1952.77	5.3646e-07
1961.32	7.43395e-07
1969.88	9.6361e-07
1978.44	1.10616e-06
1987	1.13738e-06
1995.55	1.02864e-06
2004.11	7.00823e-07
2012.67	2.98861e-07
2021.23	1.41752e-07
2029.78	8.40369e-08
2038.34	1.54479e-07
2046.9	1.62571e-07
2055.46	2.81844e-07
2064.01	4.2402e-07
2072.57	6.15092e-07
2081.13	1.15169e-06
2089.69	1.95848e-06
2098.25	2.85432e-06
2106.8	3.82435e-06
2115.36	4.88885e-06
2123.92	5.68013e-06
2132.48	5.69908e-06
2141.03	5.2035e-06
2149.59	4.54089e-06
2158.15	3.09752e-06
2166.71	1.43135e-06
2175.26	8.35051e-07
2183.82	5.99221e-07
2192.38	6.33593e-07
2200.94	5.69482e-07
2209.49	7.63192e-07
2218.05	9.54617e-07
2226.61	1.40009e-06
2235.17	1.80317e-06
2243.72	2.27742e-06
2252.28	2.18716e-06
2260.84	2.18564e-06
2269.4	1.66846e-06
2277.96	1.28536e-06
2286.51	9.29406e-07
2295.07	8.13695e-07
2303.63	6.54544e-07
2312.19	7.62254e-07
2320.74	6.44259e-07
2329.3	7.12581e-07
2337.86	8.02146e-07
2346.42	6.05216e-07
2354.97	5.22411e-07
2363.53	4.08289e-07
2372.09	1.86473e-07
2380.65	2.17968e-07
2389.2	1.18357e-07
2397.76	2.04141e-07
2406.32	4.91397e-07
2414.88	7.69638e-07
2423.44	9.91215e-07
2431.99	9.4586e-07
2440.55	9.77378e-07
2449.11	1.13873e-06
2457.67	4.2026e-07
2466.22	3.02211e-07
2474.78	3.21294e-07
2483.34	3.93275e-07
2491.9	4.43437e-07
2500.45	5.79914e-07
2509.01	5.75905e-07
2517.57	5.66763e-07
2526.13	6.87107e-07
2534.68	7.89779e-07
2543.24	1.1412e-06
2551.8	1.7168e-06
2560.36	2.46785e-06
2568.91	2.66606e-06
2577.47	2.49702e-06
2586.03	2.61543e-06
2594.59	1.49096e-06
2603.15	6.61316e-07
2611.7	4.14523e-07
2620.26	4.4216e-07
2628.82	5.18667e-07
2637.38	5.32284e-07
2645.93	5.74385e-07
2654.49	5.65818e-07
2663.05	4.43849e-07
2671.61	3.24113e-07
2680.16	2.39933e-07
2688.72	3.5816e-07
2697.28	3.32428e-07
2705.84	5.65111e-07
2714.39	6.33477e-07
2722.95	4.71946e-07
2731.51	4.431e-07
2740.07	4.45605e-07
2748.62	6.00852e-07
2757.18	7.22236e-07
2765.74	1.1548e-06
2774.3	1.84202e-06
2782.86	2.26745e-06
2791.41	2.68841e-06
2799.97	3.07721e-06
2808.53	3.04317e-06
2817.09	3.11017e-06
2825.64	3.79823e-06
2834.2	5.47659e-06
2842.76	7.19497e-06
2851.32	8.57098e-06
2859.87	9.20056e-06
2868.43	9.47731e-06
2876.99	8.83254e-06
2885.55	8.57618e-06
2894.1	9.76927e-06
2902.66	1.37343e-05
2911.22	2.21257e-05
2919.78	3.2708e-05
2928.34	3.75504e-05
2936.89	4.20707e-05
2945.45	4.91771e-05
2954.01	4.54187e-05
2962.57	3.89716e-05
2971.12	9.88134e-05
2979.68	3.77844e-05
2988.24	4.53909e-05
2996.8	5.27386e-05
3005.35	5.81612e-05
3013.91	5.82846e-05
3022.47	5.64723e-05
3031.03	5.36388e-05
3039.58	3.40153e-05
3048.14	2.38978e-05
3056.7	2.16532e-05
3065.26	2.06086e-05
3073.81	1.9613e-05
3082.37	1.7672e-05
3090.93	1.52128e-05
3099.49	1.16871e-05
3108.05	8.47643e-06
3116.6	5.75807e-06
3125.16	3.92992e-06
3133.72	2.85337e-06
3142.28	2.22324e-06
3150.83	2.08358e-06
3159.39	1.81248e-06
3167.95	1.71001e-06
3176.51	1.61225e-06
3185.06	1.29147e-06
3193.62	1.24344e-06
3202.18	9.27978e-07
3210.74	8.49237e-07
3219.29	7.35566e-07
3227.85	5.55821e-07
3236.41	5.36861e-07
3244.97	7.18352e-07
3253.52	6.65448e-07
3262.08	4.76913e-07
3270.64	3.98729e-07
3279.2	3.69151e-07
3287.76	4.55499e-07
3296.31	3.64865e-07
3304.87	4.30824e-07
3313.43	3.61167e-07
3321.99	3.16273e-07
3330.54	2.81854e-07
3339.1	3.59738e-07
3347.66	2.75534e-07
3356.22	2.57805e-07
3364.77	3.57347e-07
3373.33	4.39748e-07
3381.89	5.55854e-07
3390.45	7.35782e-07
3399	6.6663e-07
3407.56	7.9046e-07
3416.12	1.33834e-06
3424.68	2.79362e-06
3433.23	5.58173e-06
3441.79	8.31268e-06
3450.35	9.77072e-06
3458.91	1.15017e-05
3467.47	1.05407e-05
3476.02	7.79277e-06
3484.58	4.86675e-06
3493.14	3.11462e-06
3501.7	2.31973e-06
3510.25	1.22447e-06
3518.81	6.78316e-07
3527.37	3.94463e-07
3535.93	2.91225e-07
3544.48	7.31859e-08
3553.04	1.76275e-08
3561.6	5.43087e-08
3570.16	2.12545e-08
3578.71	-1.55589e-07
3587.27	-2.92489e-08
3595.83	8.63133e-08
3604.39	-7.50912e-08
3612.95	1.62632e-07
3621.5	7.39098e-08
3630.06	3.71507e-07
3638.62	1.17659e-07
3647.18	1.17227e-06
3655.73	2.76158e-07
3664.29	1.50152e-07
3672.85	1.57682e-07
3681.41	1.03302e-07
3689.96	2.11245e-07
3698.52	8.42006e-08
3707.08	2.70316e-07
3715.64	2.05151e-07
3724.19	4.01028e-07
3732.75	4.65255e-07
3741.31	1.01391e-06
3749.87	1.01507e-06
3758.42	3.70434e-07
3766.98	4.37763e-07
3775.54	4.60182e-07
3784.1	6.14087e-07
3792.66	6.45124e-07
3801.21	2.49697e-06
3809.77	7.88253e-07
3818.33	7.81649e-07
3826.89	1.23454e-06
3835.44	6.93793e-07
3844	7.15431e-07
3852.56	7.78269e-07
3861.12	3.47969e-07
3869.67	6.46586e-07
3878.23	3.28818e-07
3886.79	3.31323e-07
3895.35	3.63066e-07
3903.9	7.65227e-07
3912.46	5.8408e-07
3921.02	7.22151e-07
3929.58	7.18794e-07
3938.13	7.39977e-07
3946.69	6.36753e-07
3955.25	8.71119e-07
3963.81	8.16702e-07
3972.37	1.04978e-06
