Infrared Spectrum: 2-Propanone
Formula: C H3 C O C H3
CAS: 67-64-1
State: gas
Melting point: -95.35 C
Boiling point: 56.2 C
Class: IUPAC A
Instrument: IFS66V (Bruker)
Instrument parameters: KBr Beam splitter; MCT Detector; Multipass cell
Sampling: 1 L/min Flow
Resolution: 0.4820
Temperature: 23 C
Pressure: 101.3 kPa
Origin: NIST, Anayltical Chemistry Division, 301-975-3108
cm-1	(micromol/mol)-1m-1 (base 10)
574.928	1.24553e-08
583.606	2.56015e-07
592.284	8.75575e-08
600.962	1.68833e-07
609.641	-4.73539e-08
618.319	-2.24323e-08
626.997	6.33989e-08
635.675	-1.02086e-07
644.353	4.46709e-08
653.031	-5.03843e-08
661.71	-1.31817e-07
670.388	-3.32979e-08
679.066	-8.66543e-08
687.744	-8.10738e-08
696.422	-3.79008e-08
705.1	6.19874e-08
713.778	6.3609e-08
722.457	2.23972e-07
731.135	5.72952e-07
739.813	9.6822e-07
748.491	2.0109e-06
757.169	3.75975e-06
765.847	5.42558e-06
774.526	5.91115e-06
783.204	5.73924e-06
791.882	5.41184e-06
800.56	2.85532e-06
809.238	1.06616e-06
817.916	4.39728e-07
826.594	4.23077e-07
835.273	4.54864e-07
843.951	7.41886e-07
852.629	1.31976e-06
861.307	3.14566e-06
869.985	7.99025e-06
878.663	1.3574e-05
887.342	2.02088e-05
896.02	2.28297e-05
904.698	2.22059e-05
913.376	1.83216e-05
922.054	1.2592e-05
930.732	8.6236e-06
939.41	5.58835e-06
948.089	4.11589e-06
956.767	3.73937e-06
965.445	3.4433e-06
974.123	3.23462e-06
982.801	3.03359e-06
991.479	2.58522e-06
1000.16	2.19929e-06
1008.84	1.78413e-06
1017.51	1.68968e-06
1026.19	1.61869e-06
1034.87	1.783e-06
1043.55	2.16336e-06
1052.23	2.43887e-06
1060.9	2.923e-06
1069.58	4.10633e-06
1078.26	5.67675e-06
1086.94	7.96601e-06
1095.62	1.0205e-05
1104.3	1.00731e-05
1112.97	1.04572e-05
1121.65	7.6045e-06
1130.33	4.6406e-06
1139.01	3.10859e-06
1147.69	2.39595e-06
1156.36	2.54951e-06
1165.04	3.86284e-06
1173.72	7.92069e-06
1182.4	2.04666e-05
1191.08	7.54236e-05
1199.76	0.000201429
1208.43	0.000251624
1217.11	0.000387823
1225.79	0.000265821
1234.47	0.000211136
1243.15	4.30564e-05
1251.82	8.46941e-06
1260.5	4.00627e-06
1269.18	3.0127e-06
1277.86	2.99648e-06
1286.54	3.67304e-06
1295.21	4.76255e-06
1303.89	7.0397e-06
1312.57	1.09999e-05
1321.25	1.83491e-05
1329.93	3.56133e-05
1338.61	8.31391e-05
1347.28	0.000180516
1355.96	0.000240947
1364.64	0.000299727
1373.32	0.000285708
1382	0.000205943
1390.67	8.72017e-05
1399.35	5.4615e-05
1408.03	5.43475e-05
1416.71	6.59986e-05
1425.39	7.58874e-05
1434.07	8.39626e-05
1442.74	7.85984e-05
1451.42	6.86193e-05
1460.1	5.42308e-05
1468.78	4.15842e-05
1477.46	3.31776e-05
1486.13	2.22679e-05
1494.81	1.82205e-05
1503.49	1.67185e-05
1512.17	1.68988e-05
1520.85	1.70695e-05
1529.52	1.61443e-05
1538.2	1.61098e-05
1546.88	1.49714e-05
1555.56	1.39593e-05
1564.24	1.28365e-05
1572.92	1.07698e-05
1581.59	8.84256e-06
1590.27	7.34836e-06
1598.95	5.68257e-06
1607.63	4.42123e-06
1616.31	4.56104e-06
1624.98	3.33087e-06
1633.66	3.25524e-06
1642.34	3.78321e-06
1651.02	4.87314e-06
1659.7	5.93301e-06
1668.38	8.65341e-06
1677.05	1.17694e-05
1685.73	1.74512e-05
1694.41	3.13444e-05
1703.09	8.07193e-05
1711.77	0.000202354
1720.44	0.000335785
1729.12	0.000398945
1737.8	0.000514899
1746.48	0.000451455
1755.16	0.000344983
1763.84	0.000229514
1772.51	0.000133957
1781.19	7.7823e-05
1789.87	5.47925e-05
1798.55	3.48038e-05
1807.23	2.15576e-05
1815.9	1.24145e-05
1824.58	7.81173e-06
1833.26	5.40489e-06
1841.94	4.2407e-06
1850.62	2.7371e-06
1859.29	1.97001e-06
1867.97	1.88795e-06
1876.65	1.33995e-06
1885.33	1.13405e-06
1894.01	9.06288e-07
1902.69	7.167e-07
1911.36	4.95266e-07
1920.04	3.48968e-07
1928.72	3.63224e-07
1937.4	4.01817e-07
1946.08	4.79526e-07
1954.75	6.13148e-07
1963.43	8.20235e-07
1972.11	9.98865e-07
1980.79	1.16161e-06
1989.47	1.01869e-06
1998.15	8.81633e-07
2006.82	5.80855e-07
2015.5	2.1723e-07
2024.18	1.31323e-07
2032.86	1.71681e-07
2041.54	1.88057e-07
2050.21	2.29233e-07
2058.89	3.36825e-07
2067.57	4.6764e-07
2076.25	8.14735e-07
2084.93	1.46194e-06
2093.6	2.44691e-06
2102.28	3.06724e-06
2110.96	4.14904e-06
2119.64	5.34675e-06
2128.32	5.69616e-06
2137	5.49842e-06
2145.67	5.43236e-06
2154.35	3.86079e-06
2163.03	2.02857e-06
2171.71	9.56644e-07
2180.39	7.0861e-07
2189.06	5.26018e-07
2197.74	5.85139e-07
2206.42	6.3458e-07
2215.1	8.93872e-07
2223.78	1.23111e-06
2232.46	1.74779e-06
2241.13	2.08989e-06
2249.81	2.09614e-06
2258.49	2.26323e-06
2267.17	1.81994e-06
2275.85	1.37623e-06
2284.52	1.02166e-06
2293.2	8.35711e-07
2301.88	6.69385e-07
2310.56	7.15064e-07
2319.24	8.37009e-07
2327.92	7.3139e-07
2336.59	6.10394e-07
2345.27	5.652e-07
2353.95	4.44513e-07
2362.63	7.05162e-07
2371.31	4.23377e-07
2379.98	1.80027e-07
2388.66	1.37851e-07
2397.34	2.54513e-07
2406.02	4.91307e-07
2414.7	7.39807e-07
2423.37	9.75351e-07
2432.05	9.70351e-07
2440.73	9.76761e-07
2449.41	1.12683e-06
2458.09	3.78637e-07
2466.77	2.90871e-07
2475.44	2.73391e-07
2484.12	3.71444e-07
2492.8	4.63677e-07
2501.48	5.32228e-07
2510.16	6.53813e-07
2518.83	6.26202e-07
2527.51	6.35876e-07
2536.19	8.65069e-07
2544.87	1.17177e-06
2553.55	1.8914e-06
2562.23	2.5476e-06
2570.9	2.77758e-06
2579.58	2.51063e-06
2588.26	2.46109e-06
2596.94	1.20766e-06
2605.62	5.46998e-07
2614.29	4.76675e-07
2622.97	4.54046e-07
2631.65	5.05493e-07
2640.33	5.82019e-07
2649.01	5.79798e-07
2657.68	5.5212e-07
2666.36	4.05803e-07
2675.04	3.19053e-07
2683.72	3.46e-07
2692.4	3.617e-07
2701.08	3.56201e-07
2709.75	5.24517e-07
2718.43	5.43076e-07
2727.11	4.64651e-07
2735.79	4.47837e-07
2744.47	5.03719e-07
2753.14	6.11157e-07
2761.82	9.53519e-07
2770.5	1.44268e-06
2779.18	2.16785e-06
2787.86	2.55421e-06
2796.54	2.96579e-06
2805.21	3.02751e-06
2813.89	3.05896e-06
2822.57	3.4665e-06
2831.25	4.829e-06
2839.93	6.81013e-06
2848.6	8.10863e-06
2857.28	9.1049e-06
2865.96	9.7133e-06
2874.64	8.97709e-06
2883.32	8.47743e-06
2892	9.48394e-06
2900.67	1.24936e-05
2909.35	1.96682e-05
2918.03	3.10045e-05
2926.71	3.6949e-05
2935.39	3.94683e-05
2944.06	4.86245e-05
2952.74	4.63994e-05
2961.42	3.88715e-05
2970.1	0.000137666
2978.78	3.77154e-05
2987.45	4.4879e-05
2996.13	5.22092e-05
3004.81	5.82666e-05
3013.49	5.75116e-05
3022.17	5.63518e-05
3030.85	5.40266e-05
3039.52	3.40935e-05
3048.2	2.3903e-05
3056.88	2.16054e-05
3065.56	2.05645e-05
3074.24	1.95506e-05
3082.91	1.75735e-05
3091.59	1.49404e-05
3100.27	1.13625e-05
3108.95	8.28911e-06
3117.63	5.60765e-06
3126.31	3.79694e-06
3134.98	2.79866e-06
3143.66	2.23884e-06
3152.34	2.02029e-06
3161.02	1.76603e-06
3169.7	1.68027e-06
3178.37	1.54014e-06
3187.05	1.30261e-06
3195.73	1.08913e-06
3204.41	9.2164e-07
3213.09	7.71431e-07
3221.77	7.07022e-07
3230.44	6.68597e-07
3239.12	6.05317e-07
3247.8	5.13955e-07
3256.48	5.1868e-07
3265.16	4.83552e-07
3273.83	4.41293e-07
3282.51	4.26565e-07
3291.19	5.02918e-07
3299.87	5.39913e-07
3308.55	4.43121e-07
3317.22	4.42547e-07
3325.9	3.81574e-07
3334.58	3.10181e-07
3343.26	2.37935e-07
3351.94	2.76296e-07
3360.62	2.37893e-07
3369.29	2.21869e-07
3377.97	5.10223e-07
3386.65	6.67751e-07
3395.33	6.19784e-07
3404.01	6.95654e-07
3412.68	9.61044e-07
3421.36	1.96154e-06
3430.04	4.44541e-06
3438.72	7.55709e-06
3447.4	9.80377e-06
3456.08	1.16893e-05
3464.75	1.11532e-05
3473.43	8.82976e-06
3482.11	5.76026e-06
3490.79	3.5081e-06
3499.47	2.39988e-06
3508.14	1.42979e-06
3516.82	7.64959e-07
3525.5	5.39862e-07
3534.18	1.84161e-07
3542.86	1.78356e-07
3551.53	9.09234e-08
3560.21	1.7843e-07
3568.89	3.85219e-08
3577.57	-4.77286e-08
3586.25	3.05467e-07
3594.93	-5.16039e-09
3603.6	-3.94887e-08
3612.28	4.83451e-07
3620.96	1.90007e-07
3629.64	2.2665e-06
3638.32	1.42758e-07
3646.99	6.84032e-07
3655.67	2.67253e-07
3664.35	8.8929e-08
3673.03	1.44354e-07
3681.71	1.36401e-07
3690.39	3.91317e-07
3699.06	2.40703e-07
3707.74	2.02998e-07
3716.42	2.80914e-07
3725.1	5.60274e-07
3733.78	4.41082e-07
3742.45	3.74985e-07
3751.13	6.36129e-07
3759.81	1.2685e-06
3768.49	4.64685e-07
3777.17	4.84877e-07
3785.85	5.61977e-07
3794.52	6.54718e-07
3803.2	9.93176e-07
3811.88	7.15205e-07
3820.56	1.75623e-06
3829.24	6.85613e-07
3837.91	4.43847e-06
3846.59	4.66511e-07
3855.27	5.53289e-07
3863.95	4.55631e-07
3872.63	3.83751e-07
3881.3	4.81782e-07
3889.98	3.62887e-07
3898.66	4.99006e-07
3907.34	4.72877e-07
3916.02	5.74816e-07
3924.7	7.29788e-07
3933.37	6.89407e-07
3942.05	6.62945e-07
3950.73	6.43115e-07
3959.41	7.3471e-07
3968.09	8.45525e-07
