Infrared Spectrum: 2-Propanone
Formula: C H3 C O C H3
CAS: 67-64-1
State: gas
Melting point: -95.35 C
Boiling point: 56.2 C
Class: IUPAC A
Instrument: IFS66V (Bruker)
Instrument parameters: KBr Beam splitter; MCT Detector; Multipass cell
Sampling: 1 L/min Flow
Resolution: 0.1250
Temperature: 23 C
Pressure: 101.3 kPa
Origin: NIST, Anayltical Chemistry Division, 301-975-3108
cm-1	(micromol/mol)-1m-1 (base 10)
574.988	1.83589e-07
583.546	-8.2579e-08
592.103	3.43452e-07
600.661	-7.57388e-08
609.219	2.11984e-07
617.776	-1.68654e-08
626.334	-2.35301e-08
634.891	-2.21961e-07
643.449	-3.32775e-07
652.007	2.65815e-07
660.564	9.52544e-08
669.122	-1.34118e-07
677.68	3.67803e-08
686.237	1.30268e-07
694.795	4.65763e-08
703.352	-5.59649e-08
711.91	1.0557e-07
720.468	2.65429e-07
729.025	4.49199e-07
737.583	8.00024e-07
746.141	1.55035e-06
754.698	3.25553e-06
763.256	5.12251e-06
771.813	6.01418e-06
780.371	6.0664e-06
788.929	5.7575e-06
797.486	3.94472e-06
806.044	1.37822e-06
814.602	5.76936e-07
823.159	3.56861e-07
831.717	3.79662e-07
840.274	7.322e-07
848.832	1.12715e-06
857.39	2.13782e-06
865.947	5.29986e-06
874.505	1.19527e-05
883.063	1.47184e-05
891.62	1.86734e-05
900.178	2.34366e-05
908.735	2.10147e-05
917.293	1.54852e-05
925.851	1.07601e-05
934.408	7.23692e-06
942.966	4.74601e-06
951.524	3.85481e-06
960.081	3.75262e-06
968.639	3.54972e-06
977.196	3.15458e-06
985.754	2.88415e-06
994.312	2.25208e-06
1002.87	1.96865e-06
1011.43	1.82814e-06
1019.98	1.82819e-06
1028.54	1.69404e-06
1037.1	1.9266e-06
1045.66	2.33622e-06
1054.22	2.55097e-06
1062.77	3.12561e-06
1071.33	4.48245e-06
1079.89	5.88428e-06
1088.45	9.57521e-06
1097	9.52341e-06
1105.56	1.03053e-05
1114.12	1.01484e-05
1122.68	7.1528e-06
1131.23	4.50256e-06
1139.79	2.96725e-06
1148.35	2.47748e-06
1156.91	2.52692e-06
1165.46	3.93778e-06
1174.02	8.28328e-06
1182.58	2.11106e-05
1191.14	7.62416e-05
1199.69	0.000199962
1208.25	0.000252578
1216.81	0.000381201
1225.37	0.000259663
1233.93	0.000223818
1242.48	5.01746e-05
1251.04	9.56188e-06
1259.6	4.23374e-06
1268.16	3.07171e-06
1276.71	2.98472e-06
1285.27	3.51689e-06
1293.83	4.58018e-06
1302.39	6.59262e-06
1310.94	1.00381e-05
1319.5	1.64636e-05
1328.06	3.04658e-05
1336.62	6.80359e-05
1345.17	0.000154243
1353.73	0.000238757
1362.29	0.00026145
1370.85	0.000292569
1379.4	0.000242278
1387.96	0.000114768
1396.52	5.87309e-05
1405.08	5.27174e-05
1413.64	6.1703e-05
1422.19	7.38241e-05
1430.75	7.36807e-05
1439.31	8.02172e-05
1447.87	7.98895e-05
1456.42	6.35094e-05
1464.98	4.87518e-05
1473.54	4.26334e-05
1482.1	2.58893e-05
1490.65	2.02514e-05
1499.21	1.75015e-05
1507.77	1.72058e-05
1516.33	1.64401e-05
1524.88	1.68026e-05
1533.44	1.63142e-05
1542	1.79962e-05
1550.56	1.46522e-05
1559.11	1.4002e-05
1567.67	1.20239e-05
1576.23	1.58951e-05
1584.79	8.26179e-06
1593.35	6.74693e-06
1601.9	5.24228e-06
1610.46	4.13279e-06
1619.02	3.50502e-06
1627.58	3.44678e-06
1636.13	3.7007e-06
1644.69	4.02451e-06
1653.25	1.20259e-05
1661.81	6.19661e-06
1670.36	8.79426e-06
1678.92	1.29203e-05
1687.48	1.91899e-05
1696.04	4.10674e-05
1704.59	9.6334e-05
1713.15	0.000227049
1721.71	0.000349539
1730.27	0.000391727
1738.83	0.000517498
1747.38	0.000439016
1755.94	0.000331897
1764.5	0.000219016
1773.06	0.000132613
1781.61	7.66244e-05
1790.17	5.38891e-05
1798.73	3.45357e-05
1807.29	2.15626e-05
1815.84	1.2527e-05
1824.4	7.89453e-06
1832.96	5.50732e-06
1841.52	4.2802e-06
1850.07	2.88738e-06
1858.63	2.10613e-06
1867.19	1.66181e-06
1875.75	1.4066e-06
1884.3	1.13783e-06
1892.86	8.80173e-07
1901.42	7.89688e-07
1909.98	7.70111e-07
1918.54	4.1568e-07
1927.09	3.75716e-07
1935.65	3.91381e-07
1944.21	4.00022e-07
1952.77	5.4329e-07
1961.32	7.49846e-07
1969.88	9.68497e-07
1978.44	1.11115e-06
1987	1.14104e-06
1995.55	1.02832e-06
2004.11	7.04806e-07
2012.67	3.04017e-07
2021.23	1.49813e-07
2029.78	9.29852e-08
2038.34	1.5823e-07
2046.9	1.67001e-07
2055.46	2.81674e-07
2064.01	4.26697e-07
2072.57	6.20567e-07
2081.13	1.1491e-06
2089.69	1.96144e-06
2098.25	2.85511e-06
2106.8	3.82462e-06
2115.36	4.88764e-06
2123.92	5.68163e-06
2132.48	5.69746e-06
2141.03	5.20625e-06
2149.59	4.54331e-06
2158.15	3.09946e-06
2166.71	1.43593e-06
2175.26	8.3422e-07
2183.82	6.00105e-07
2192.38	6.29774e-07
2200.94	5.75946e-07
2209.49	7.67297e-07
2218.05	9.57413e-07
2226.61	1.40212e-06
2235.17	1.80643e-06
2243.72	2.27723e-06
2252.28	2.19021e-06
2260.84	2.18807e-06
2269.4	1.6709e-06
2277.96	1.28225e-06
2286.51	9.3443e-07
2295.07	8.10573e-07
2303.63	6.58518e-07
2312.19	7.60433e-07
2320.74	6.51585e-07
2329.3	7.16688e-07
2337.86	8.12016e-07
2346.42	6.07079e-07
2354.97	5.24795e-07
2363.53	4.16163e-07
2372.09	1.97797e-07
2380.65	2.16723e-07
2389.2	1.22432e-07
2397.76	2.09701e-07
2406.32	4.91612e-07
2414.88	7.69191e-07
2423.44	9.88665e-07
2431.99	9.48963e-07
2440.55	9.75977e-07
2449.11	1.13041e-06
2457.67	4.19796e-07
2466.22	3.02423e-07
2474.78	3.19418e-07
2483.34	3.90712e-07
2491.9	4.44057e-07
2500.45	5.77202e-07
2509.01	5.80378e-07
2517.57	5.70485e-07
2526.13	6.86898e-07
2534.68	7.91337e-07
2543.24	1.13999e-06
2551.8	1.71844e-06
2560.36	2.46557e-06
2568.91	2.66778e-06
2577.47	2.50068e-06
2586.03	2.61439e-06
2594.59	1.49435e-06
2603.15	6.65485e-07
2611.7	4.19227e-07
2620.26	4.45566e-07
2628.82	5.19587e-07
2637.38	5.35034e-07
2645.93	5.74087e-07
2654.49	5.63948e-07
2663.05	4.4515e-07
2671.61	3.26258e-07
2680.16	2.46461e-07
2688.72	3.55146e-07
2697.28	3.37401e-07
2705.84	5.6356e-07
2714.39	6.28443e-07
2722.95	4.7378e-07
2731.51	4.44425e-07
2740.07	4.47914e-07
2748.62	6.04148e-07
2757.18	7.23479e-07
2765.74	1.15913e-06
2774.3	1.83806e-06
2782.86	2.27062e-06
2791.41	2.69172e-06
2799.97	3.07155e-06
2808.53	3.04631e-06
2817.09	3.11821e-06
2825.64	3.80934e-06
2834.2	5.48897e-06
2842.76	7.20636e-06
2851.32	8.56442e-06
2859.87	9.20007e-06
2868.43	9.48389e-06
2876.99	8.83231e-06
2885.55	8.58672e-06
2894.1	9.79792e-06
2902.66	1.37357e-05
2911.22	2.21305e-05
2919.78	3.26955e-05
2928.34	3.75503e-05
2936.89	4.20572e-05
2945.45	4.91543e-05
2954.01	4.54163e-05
2962.57	3.90253e-05
2971.12	9.86409e-05
2979.68	3.78347e-05
2988.24	4.53995e-05
2996.8	5.27286e-05
3005.35	5.81335e-05
3013.91	5.82693e-05
3022.47	5.64461e-05
3031.03	5.36075e-05
3039.58	3.40199e-05
3048.14	2.39128e-05
3056.7	2.16643e-05
3065.26	2.06108e-05
3073.81	1.96119e-05
3082.37	1.76687e-05
3090.93	1.52089e-05
3099.49	1.16843e-05
3108.05	8.49028e-06
3116.6	5.76448e-06
3125.16	3.93655e-06
3133.72	2.86273e-06
3142.28	2.22903e-06
3150.83	2.09246e-06
3159.39	1.81934e-06
3167.95	1.70843e-06
3176.51	1.60991e-06
3185.06	1.29975e-06
3193.62	1.24067e-06
3202.18	9.34444e-07
3210.74	8.48503e-07
3219.29	7.32992e-07
3227.85	5.63817e-07
3236.41	5.41794e-07
3244.97	7.0876e-07
3253.52	6.57088e-07
3262.08	4.81509e-07
3270.64	3.96121e-07
3279.2	3.69914e-07
3287.76	4.56115e-07
3296.31	3.73985e-07
3304.87	4.38256e-07
3313.43	3.606e-07
3321.99	3.28395e-07
3330.54	2.89806e-07
3339.1	3.60478e-07
3347.66	2.82373e-07
3356.22	2.61526e-07
3364.77	3.57812e-07
3373.33	4.42934e-07
3381.89	5.65871e-07
3390.45	7.28524e-07
3399	6.62998e-07
3407.56	7.90224e-07
3416.12	1.33468e-06
3424.68	2.79662e-06
3433.23	5.58382e-06
3441.79	8.31739e-06
3450.35	9.76982e-06
3458.91	1.14844e-05
3467.47	1.05445e-05
3476.02	7.79221e-06
3484.58	4.87248e-06
3493.14	3.11458e-06
3501.7	2.30462e-06
3510.25	1.22597e-06
3518.81	6.81753e-07
3527.37	4.0435e-07
3535.93	2.87287e-07
3544.48	7.60298e-08
3553.04	2.79156e-08
3561.6	5.46188e-08
3570.16	2.52117e-08
3578.71	-1.43363e-07
3587.27	-1.6106e-08
3595.83	8.41133e-08
3604.39	-6.4614e-08
3612.95	1.83426e-07
3621.5	8.54175e-08
3630.06	3.98172e-07
3638.62	1.14342e-07
3647.18	1.11845e-06
3655.73	2.88974e-07
3664.29	1.49059e-07
3672.85	1.67186e-07
3681.41	1.16089e-07
3689.96	2.27711e-07
3698.52	9.68378e-08
3707.08	2.6988e-07
3715.64	2.10975e-07
3724.19	3.96163e-07
3732.75	4.91694e-07
3741.31	9.70072e-07
3749.87	1.07006e-06
3758.42	3.77667e-07
3766.98	4.36131e-07
3775.54	4.64603e-07
3784.1	6.16884e-07
3792.66	6.43142e-07
3801.21	2.52042e-06
3809.77	7.89583e-07
3818.33	7.87539e-07
3826.89	1.21128e-06
3835.44	7.17086e-07
3844	7.36277e-07
3852.56	8.28866e-07
3861.12	3.59108e-07
3869.67	6.88425e-07
3878.23	3.2753e-07
3886.79	3.43936e-07
3895.35	3.63621e-07
3903.9	8.02638e-07
3912.46	5.86169e-07
3921.02	7.12734e-07
3929.58	7.21708e-07
3938.13	7.35554e-07
3946.69	6.37067e-07
3955.25	8.54537e-07
3963.81	8.14937e-07
3972.37	1.05212e-06
