Infrared Spectrum: 2-Propanone
Formula: C H3 C O C H3
CAS: 67-64-1
State: gas
Melting point: -95.35 C
Boiling point: 56.2 C
Class: IUPAC A
Instrument: IFS66V (Bruker)
Instrument parameters: KBr Beam splitter; MCT Detector; Multipass cell
Sampling: 1 L/min Flow
Resolution: 0.4820
Temperature: 23 C
Pressure: 101.3 kPa
Origin: NIST, Anayltical Chemistry Division, 301-975-3108
cm-1	(micromol/mol)-1m-1 (base 10)
574.928	-2.7158e-07
583.606	2.16718e-07
592.284	5.35093e-08
600.962	3.40502e-07
609.641	-2.59618e-07
618.319	-1.12203e-08
626.997	1.05018e-07
635.675	-2.55806e-07
644.353	8.62032e-08
653.031	-7.6691e-08
661.71	-2.6385e-07
670.388	4.98213e-09
679.066	-1.4792e-07
687.744	-8.79949e-08
696.422	3.95351e-09
705.1	2.1411e-08
713.778	-1.13176e-08
722.457	1.99355e-07
731.135	6.31617e-07
739.813	9.95519e-07
748.491	1.96126e-06
757.169	3.7329e-06
765.847	5.40735e-06
774.526	5.9521e-06
783.204	5.7086e-06
791.882	5.44355e-06
800.56	2.81298e-06
809.238	1.08661e-06
817.916	4.01157e-07
826.594	3.8052e-07
835.273	4.20386e-07
843.951	6.99117e-07
852.629	1.29133e-06
861.307	3.13182e-06
869.985	7.97439e-06
878.663	1.35508e-05
887.342	2.02529e-05
896.02	2.27703e-05
904.698	2.22491e-05
913.376	1.83205e-05
922.054	1.26333e-05
930.732	8.66457e-06
939.41	5.57905e-06
948.089	4.12905e-06
956.767	3.75514e-06
965.445	3.4335e-06
974.123	3.23415e-06
982.801	3.0413e-06
991.479	2.59224e-06
1000.16	2.24497e-06
1008.84	1.79305e-06
1017.51	1.70084e-06
1026.19	1.62637e-06
1034.87	1.78681e-06
1043.55	2.14536e-06
1052.23	2.40363e-06
1060.9	2.9335e-06
1069.58	4.07416e-06
1078.26	5.6473e-06
1086.94	7.98493e-06
1095.62	1.01172e-05
1104.3	1.00516e-05
1112.97	1.04744e-05
1121.65	7.58574e-06
1130.33	4.65089e-06
1139.01	3.11879e-06
1147.69	2.35388e-06
1156.36	2.54897e-06
1165.04	3.85951e-06
1173.72	7.8916e-06
1182.4	2.04166e-05
1191.08	7.54954e-05
1199.76	0.000201115
1208.43	0.000252183
1217.11	0.00038805
1225.79	0.000266008
1234.47	0.000211255
1243.15	4.30801e-05
1251.82	8.4939e-06
1260.5	4.02128e-06
1269.18	3.02345e-06
1277.86	2.98906e-06
1286.54	3.67305e-06
1295.21	4.76283e-06
1303.89	7.05713e-06
1312.57	1.10427e-05
1321.25	1.83129e-05
1329.93	3.55883e-05
1338.61	8.32456e-05
1347.28	0.000180451
1355.96	0.000240824
1364.64	0.000297926
1373.32	0.000285568
1382	0.000206014
1390.67	8.71633e-05
1399.35	5.47215e-05
1408.03	5.43987e-05
1416.71	6.60225e-05
1425.39	7.59138e-05
1434.07	8.39142e-05
1442.74	7.8575e-05
1451.42	6.86329e-05
1460.1	5.41246e-05
1468.78	4.15087e-05
1477.46	3.32288e-05
1486.13	2.23085e-05
1494.81	1.82575e-05
1503.49	1.67716e-05
1512.17	1.70646e-05
1520.85	1.6368e-05
1529.52	1.61704e-05
1538.2	1.60291e-05
1546.88	1.49593e-05
1555.56	1.39647e-05
1564.24	1.28834e-05
1572.92	1.07267e-05
1581.59	8.88395e-06
1590.27	7.35979e-06
1598.95	5.69011e-06
1607.63	4.38995e-06
1616.31	3.7573e-06
1624.98	3.30769e-06
1633.66	3.29416e-06
1642.34	3.78598e-06
1651.02	4.71881e-06
1659.7	5.98939e-06
1668.38	8.84226e-06
1677.05	1.18048e-05
1685.73	1.72041e-05
1694.41	3.15024e-05
1703.09	8.05544e-05
1711.77	0.000202324
1720.44	0.000335916
1729.12	0.000398946
1737.8	0.000514964
1746.48	0.000451505
1755.16	0.000344922
1763.84	0.000229465
1772.51	0.000133625
1781.19	7.78037e-05
1789.87	5.48533e-05
1798.55	3.48281e-05
1807.23	2.15729e-05
1815.9	1.24391e-05
1824.58	7.83498e-06
1833.26	5.40888e-06
1841.94	4.20986e-06
1850.62	2.73199e-06
1859.29	1.97592e-06
1867.97	1.9719e-06
1876.65	1.3358e-06
1885.33	1.15221e-06
1894.01	9.03799e-07
1902.69	7.18993e-07
1911.36	4.91042e-07
1920.04	3.6706e-07
1928.72	3.89864e-07
1937.4	4.04774e-07
1946.08	4.86164e-07
1954.75	5.94614e-07
1963.43	8.03918e-07
1972.11	9.96406e-07
1980.79	1.16569e-06
1989.47	1.02553e-06
1998.15	8.90881e-07
2006.82	5.78189e-07
2015.5	2.24864e-07
2024.18	1.46343e-07
2032.86	1.96477e-07
2041.54	1.87144e-07
2050.21	2.54115e-07
2058.89	3.29686e-07
2067.57	4.44914e-07
2076.25	8.21724e-07
2084.93	1.45597e-06
2093.6	2.46697e-06
2102.28	3.06379e-06
2110.96	4.14069e-06
2119.64	5.34407e-06
2128.32	5.69364e-06
2137	5.48305e-06
2145.67	5.41866e-06
2154.35	3.87338e-06
2163.03	2.03374e-06
2171.71	9.57616e-07
2180.39	7.19534e-07
2189.06	5.17971e-07
2197.74	5.9185e-07
2206.42	6.35348e-07
2215.1	8.97199e-07
2223.78	1.21112e-06
2232.46	1.74777e-06
2241.13	2.09209e-06
2249.81	2.09e-06
2258.49	2.2588e-06
2267.17	1.83092e-06
2275.85	1.39206e-06
2284.52	1.01169e-06
2293.2	8.40723e-07
2301.88	6.43781e-07
2310.56	7.4868e-07
2319.24	9.10395e-07
2327.92	7.40323e-07
2336.59	6.40821e-07
2345.27	5.32405e-07
2353.95	3.85114e-07
2362.63	7.50668e-07
2371.31	4.786e-07
2379.98	1.8451e-07
2388.66	1.43617e-07
2397.34	2.65948e-07
2406.02	4.98581e-07
2414.7	7.6267e-07
2423.37	9.99506e-07
2432.05	9.40278e-07
2440.73	9.78724e-07
2449.41	1.1239e-06
2458.09	3.96381e-07
2466.77	3.05473e-07
2475.44	2.71648e-07
2484.12	3.79148e-07
2492.8	4.71312e-07
2501.48	5.51498e-07
2510.16	6.55343e-07
2518.83	6.69341e-07
2527.51	6.06214e-07
2536.19	8.94414e-07
2544.87	1.18492e-06
2553.55	1.87978e-06
2562.23	2.55335e-06
2570.9	2.78845e-06
2579.58	2.51099e-06
2588.26	2.42084e-06
2596.94	1.18998e-06
2605.62	5.50129e-07
2614.29	4.89753e-07
2622.97	4.26156e-07
2631.65	4.95873e-07
2640.33	5.82992e-07
2649.01	5.88343e-07
2657.68	5.39577e-07
2666.36	3.74983e-07
2675.04	3.35622e-07
2683.72	3.39727e-07
2692.4	3.63362e-07
2701.08	3.32452e-07
2709.75	5.05162e-07
2718.43	5.33192e-07
2727.11	4.63079e-07
2735.79	4.55191e-07
2744.47	5.19989e-07
2753.14	5.98302e-07
2761.82	9.80241e-07
2770.5	1.43973e-06
2779.18	2.2016e-06
2787.86	2.57897e-06
2796.54	2.94636e-06
2805.21	3.06985e-06
2813.89	3.03793e-06
2822.57	3.40942e-06
2831.25	4.83144e-06
2839.93	6.81399e-06
2848.6	8.11372e-06
2857.28	9.07584e-06
2865.96	9.7308e-06
2874.64	8.98527e-06
2883.32	8.48598e-06
2892	9.44294e-06
2900.67	1.25007e-05
2909.35	1.96867e-05
2918.03	3.10088e-05
2926.71	3.69798e-05
2935.39	3.94696e-05
2944.06	4.86011e-05
2952.74	4.6332e-05
2961.42	3.88777e-05
2970.1	0.000139787
2978.78	3.77494e-05
2987.45	4.48577e-05
2996.13	5.22959e-05
3004.81	5.82651e-05
3013.49	5.75529e-05
3022.17	5.63481e-05
3030.85	5.40973e-05
3039.52	3.40473e-05
3048.2	2.39066e-05
3056.88	2.15857e-05
3065.56	2.05998e-05
3074.24	1.95436e-05
3082.91	1.75884e-05
3091.59	1.49781e-05
3100.27	1.13504e-05
3108.95	8.25642e-06
3117.63	5.63828e-06
3126.31	3.8149e-06
3134.98	2.80737e-06
3143.66	2.25358e-06
3152.34	2.02352e-06
3161.02	1.76528e-06
3169.7	1.62794e-06
3178.37	1.57498e-06
3187.05	1.33739e-06
3195.73	1.13285e-06
3204.41	9.63607e-07
3213.09	7.63567e-07
3221.77	7.19343e-07
3230.44	6.50719e-07
3239.12	6.00893e-07
3247.8	5.47187e-07
3256.48	5.44222e-07
3265.16	4.74699e-07
3273.83	4.17457e-07
3282.51	4.08476e-07
3291.19	5.29716e-07
3299.87	5.08794e-07
3308.55	3.72074e-07
3317.22	4.15952e-07
3325.9	3.59983e-07
3334.58	3.08627e-07
3343.26	1.86826e-07
3351.94	2.92705e-07
3360.62	2.73167e-07
3369.29	1.64407e-07
3377.97	5.02986e-07
3386.65	6.45949e-07
3395.33	6.14774e-07
3404.01	6.90144e-07
3412.68	9.42325e-07
3421.36	1.89796e-06
3430.04	4.43424e-06
3438.72	7.57968e-06
3447.4	9.76706e-06
3456.08	1.17356e-05
3464.75	1.11514e-05
3473.43	8.77063e-06
3482.11	5.76447e-06
3490.79	3.42792e-06
3499.47	2.39707e-06
3508.14	1.40054e-06
3516.82	7.70507e-07
3525.5	6.09292e-07
3534.18	1.36415e-07
3542.86	1.7351e-07
3551.53	1.09427e-07
3560.21	2.27995e-07
3568.89	6.19856e-08
3577.57	-1.76239e-08
3586.25	1.23368e-07
3594.93	-1.26801e-07
3603.6	-3.18618e-08
3612.28	2.98529e-07
3620.96	1.61082e-07
3629.64	3.12242e-06
3638.32	1.00751e-07
3646.99	8.08449e-07
3655.67	4.00924e-07
3664.35	1.22146e-07
3673.03	7.63036e-08
3681.71	8.07e-08
3690.39	3.66325e-07
3699.06	1.92017e-07
3707.74	2.27942e-07
3716.42	2.61134e-07
3725.1	6.47878e-07
3733.78	4.79794e-07
3742.45	4.31925e-07
3751.13	7.23895e-07
3759.81	1.59413e-06
3768.49	3.90437e-07
3777.17	4.27211e-07
3785.85	5.56086e-07
3794.52	6.52426e-07
3803.2	8.12165e-07
3811.88	6.48911e-07
3820.56	1.8381e-06
3829.24	7.201e-07
3837.91	6.26039e-06
3846.59	4.69495e-07
3855.27	2.76132e-07
3863.95	3.63387e-07
3872.63	4.13995e-07
3881.3	4.17224e-07
3889.98	3.33348e-07
3898.66	4.78487e-07
3907.34	5.01284e-07
3916.02	4.22638e-07
3924.7	7.34482e-07
3933.37	6.62364e-07
3942.05	6.63367e-07
3950.73	5.79724e-07
3959.41	7.22802e-07
3968.09	7.84543e-07
