Infrared Spectrum: 2-Propanone
Formula: C H3 C O C H3
CAS: 67-64-1
State: gas
Melting point: -95.35 C
Boiling point: 56.2 C
Class: IUPAC A
Instrument: IFS66V (Bruker)
Instrument parameters: KBr Beam splitter; MCT Detector; Multipass cell
Sampling: 1 L/min Flow
Resolution: 0.2410
Temperature: 23 C
Pressure: 101.3 kPa
Origin: NIST, Anayltical Chemistry Division, 301-975-3108
cm-1	(micromol/mol)-1m-1 (base 10)
575.048	-1.69433e-07
583.606	2.66948e-07
592.163	1.78039e-07
600.721	9.5972e-08
609.279	2.4964e-07
617.836	-2.22804e-08
626.394	3.7125e-09
634.951	-2.76683e-07
643.509	-2.17878e-07
652.067	2.10978e-07
660.624	3.00183e-08
669.182	-3.81554e-08
677.74	7.36815e-08
686.297	-2.16547e-08
694.855	-3.35243e-08
703.412	-1.63232e-07
711.97	2.92443e-08
720.528	3.00495e-07
729.085	4.9708e-07
737.643	8.25345e-07
746.201	1.58507e-06
754.758	3.28327e-06
763.316	5.1956e-06
771.873	6.05043e-06
780.431	6.01783e-06
788.989	5.8552e-06
797.546	3.85268e-06
806.104	1.34791e-06
814.662	5.02986e-07
823.219	3.86748e-07
831.777	3.91995e-07
840.334	6.65064e-07
848.892	1.03294e-06
857.45	2.18627e-06
866.007	5.33085e-06
874.565	1.20303e-05
883.123	1.47508e-05
891.68	1.86057e-05
900.238	2.34759e-05
908.795	2.09645e-05
917.353	1.54471e-05
925.911	1.07645e-05
934.468	7.19765e-06
943.026	4.7453e-06
951.584	3.85541e-06
960.141	3.77224e-06
968.699	3.58672e-06
977.256	3.11685e-06
985.814	2.87097e-06
994.372	2.28088e-06
1002.93	1.92959e-06
1011.49	1.81658e-06
1020.04	1.84728e-06
1028.6	1.63556e-06
1037.16	1.93259e-06
1045.72	2.26024e-06
1054.28	2.5302e-06
1062.83	3.11684e-06
1071.39	4.43572e-06
1079.95	5.87257e-06
1088.51	9.62521e-06
1097.06	9.51167e-06
1105.62	1.03235e-05
1114.18	1.01609e-05
1122.74	7.12721e-06
1131.29	4.41803e-06
1139.85	3.00232e-06
1148.41	2.42645e-06
1156.97	2.54489e-06
1165.52	3.97152e-06
1174.08	8.25854e-06
1182.64	2.11517e-05
1191.2	7.67524e-05
1199.75	0.000201283
1208.31	0.000252547
1216.87	0.000383527
1225.43	0.000260743
1233.99	0.000222492
1242.54	4.93561e-05
1251.1	9.34101e-06
1259.66	4.14345e-06
1268.22	3.02376e-06
1276.77	2.94623e-06
1285.33	3.4493e-06
1293.89	4.58573e-06
1302.45	6.57303e-06
1311	1.00206e-05
1319.56	1.64551e-05
1328.12	3.05566e-05
1336.68	6.83706e-05
1345.23	0.000155073
1353.79	0.000239235
1362.35	0.000261404
1370.91	0.00029228
1379.46	0.000241707
1388.02	0.00011396
1396.58	5.83963e-05
1405.14	5.25206e-05
1413.7	6.18929e-05
1422.25	7.40092e-05
1430.81	7.3643e-05
1439.37	8.0395e-05
1447.93	8.0203e-05
1456.48	6.36589e-05
1465.04	4.81812e-05
1473.6	4.15916e-05
1482.16	2.57825e-05
1490.71	2.0618e-05
1499.27	1.74521e-05
1507.83	1.72226e-05
1516.39	1.63687e-05
1524.94	1.67532e-05
1533.5	1.62793e-05
1542.06	1.8519e-05
1550.62	1.45724e-05
1559.18	1.38817e-05
1567.73	1.19847e-05
1576.29	1.43951e-05
1584.85	8.22687e-06
1593.41	6.7495e-06
1601.96	5.17399e-06
1610.52	4.10746e-06
1619.08	3.48558e-06
1627.64	3.63091e-06
1636.19	3.58352e-06
1644.75	4.01331e-06
1653.31	1.15235e-05
1661.87	6.18249e-06
1670.42	8.74431e-06
1678.98	1.29105e-05
1687.54	1.91353e-05
1696.1	3.99179e-05
1704.65	9.66937e-05
1713.21	0.000228181
1721.77	0.000350314
1730.33	0.000391579
1738.89	0.000518366
1747.44	0.000438498
1756	0.000330909
1764.56	0.000218116
1773.12	0.000133103
1781.67	7.64037e-05
1790.23	5.36431e-05
1798.79	3.43411e-05
1807.35	2.14304e-05
1815.9	1.24292e-05
1824.46	7.8347e-06
1833.02	5.44686e-06
1841.58	4.24703e-06
1850.13	2.84572e-06
1858.69	2.08314e-06
1867.25	1.60971e-06
1875.81	1.37781e-06
1884.36	1.16057e-06
1892.92	8.7677e-07
1901.48	7.6643e-07
1910.04	7.14952e-07
1918.6	4.07583e-07
1927.15	3.80404e-07
1935.71	3.77481e-07
1944.27	4.08065e-07
1952.83	5.55006e-07
1961.38	7.70712e-07
1969.94	9.77616e-07
1978.5	1.12009e-06
1987.06	1.10823e-06
1995.61	1.00313e-06
2004.17	7.16335e-07
2012.73	3.06008e-07
2021.29	1.49012e-07
2029.84	1.17701e-07
2038.4	1.48824e-07
2046.96	1.80595e-07
2055.52	2.86327e-07
2064.08	4.21345e-07
2072.63	6.40046e-07
2081.19	1.15346e-06
2089.75	1.97218e-06
2098.31	2.85762e-06
2106.86	3.84131e-06
2115.42	4.86311e-06
2123.98	5.67435e-06
2132.54	5.68765e-06
2141.09	5.2177e-06
2149.65	4.56861e-06
2158.21	3.07317e-06
2166.77	1.41453e-06
2175.32	8.5667e-07
2183.88	6.04627e-07
2192.44	6.3191e-07
2201	5.71278e-07
2209.55	7.51396e-07
2218.11	9.56892e-07
2226.67	1.43952e-06
2235.23	1.82751e-06
2243.79	2.30644e-06
2252.34	2.20328e-06
2260.9	2.1827e-06
2269.46	1.66208e-06
2278.02	1.26005e-06
2286.57	9.50689e-07
2295.13	8.04816e-07
2303.69	6.61695e-07
2312.25	7.55222e-07
2320.8	6.69465e-07
2329.36	6.88991e-07
2337.92	7.4764e-07
2346.48	5.62172e-07
2355.03	4.60709e-07
2363.59	3.80603e-07
2372.15	2.32663e-07
2380.71	2.06413e-07
2389.26	1.50325e-07
2397.82	2.02491e-07
2406.38	4.63389e-07
2414.94	7.48655e-07
2423.5	9.88021e-07
2432.05	9.56109e-07
2440.61	9.84141e-07
2449.17	1.12008e-06
2457.73	4.00342e-07
2466.28	2.74257e-07
2474.84	3.01298e-07
2483.4	4.10717e-07
2491.96	4.39969e-07
2500.51	5.3379e-07
2509.07	6.09863e-07
2517.63	5.7474e-07
2526.19	6.77677e-07
2534.74	7.91591e-07
2543.3	1.15107e-06
2551.86	1.71166e-06
2560.42	2.46001e-06
2568.98	2.65614e-06
2577.53	2.51399e-06
2586.09	2.61876e-06
2594.65	1.48896e-06
2603.21	6.49895e-07
2611.76	4.23811e-07
2620.32	4.39388e-07
2628.88	4.95756e-07
2637.44	5.53693e-07
2645.99	5.54197e-07
2654.55	5.45868e-07
2663.11	4.71865e-07
2671.67	3.14307e-07
2680.22	2.62234e-07
2688.78	3.56361e-07
2697.34	3.33964e-07
2705.9	5.31016e-07
2714.45	6.23619e-07
2723.01	4.65202e-07
2731.57	4.4182e-07
2740.13	4.71956e-07
2748.69	5.52987e-07
2757.24	7.46967e-07
2765.8	1.12328e-06
2774.36	1.8387e-06
2782.92	2.27703e-06
2791.47	2.67459e-06
2800.03	3.0546e-06
2808.59	3.03976e-06
2817.15	3.09685e-06
2825.7	3.78133e-06
2834.26	5.54649e-06
2842.82	7.24588e-06
2851.38	8.51454e-06
2859.93	9.21441e-06
2868.49	9.5667e-06
2877.05	8.80203e-06
2885.61	8.5978e-06
2894.16	9.8475e-06
2902.72	1.37787e-05
2911.28	2.22167e-05
2919.84	3.28132e-05
2928.4	3.7586e-05
2936.95	4.22119e-05
2945.51	4.91046e-05
2954.07	4.54234e-05
2962.63	3.89467e-05
2971.18	9.72281e-05
2979.74	3.78482e-05
2988.3	4.54986e-05
2996.86	5.274e-05
3005.41	5.81541e-05
3013.97	5.83138e-05
3022.53	5.64578e-05
3031.09	5.34985e-05
3039.64	3.3837e-05
3048.2	2.38942e-05
3056.76	2.16096e-05
3065.32	2.05849e-05
3073.88	1.96292e-05
3082.43	1.77287e-05
3090.99	1.52286e-05
3099.55	1.16456e-05
3108.11	8.47726e-06
3116.66	5.75534e-06
3125.22	3.95215e-06
3133.78	2.84179e-06
3142.34	2.25931e-06
3150.89	2.13716e-06
3159.45	1.83257e-06
3168.01	1.68278e-06
3176.57	1.58791e-06
3185.12	1.34403e-06
3193.68	1.17049e-06
3202.24	9.42059e-07
3210.8	8.65451e-07
3219.35	7.33462e-07
3227.91	5.77981e-07
3236.47	6.3407e-07
3245.03	6.54532e-07
3253.59	6.19983e-07
3262.14	4.67345e-07
3270.7	3.60867e-07
3279.26	3.65261e-07
3287.82	4.67078e-07
3296.37	3.75815e-07
3304.93	4.08704e-07
3313.49	4.1981e-07
3322.05	3.69542e-07
3330.6	2.77432e-07
3339.16	3.99917e-07
3347.72	3.24477e-07
3356.28	3.07981e-07
3364.83	3.73324e-07
3373.39	4.30507e-07
3381.95	5.86423e-07
3390.51	6.55041e-07
3399.06	6.74508e-07
3407.62	7.85681e-07
3416.18	1.41314e-06
3424.74	2.75588e-06
3433.3	5.70204e-06
3441.85	8.35779e-06
3450.41	9.69353e-06
3458.97	1.14785e-05
3467.53	1.0595e-05
3476.08	7.79353e-06
3484.64	4.88523e-06
3493.2	3.11695e-06
3501.76	2.29367e-06
3510.31	1.14279e-06
3518.87	7.32194e-07
3527.43	4.27034e-07
3535.99	2.82898e-07
3544.54	5.01906e-08
3553.1	6.7839e-08
3561.66	5.31118e-08
3570.22	1.66271e-08
3578.78	-1.48743e-07
3587.33	-9.87695e-10
3595.89	6.60019e-08
3604.45	-1.55339e-08
3613.01	2.08879e-07
3621.56	2.40376e-08
3630.12	2.7083e-07
3638.68	1.16123e-07
3647.24	9.25982e-07
3655.79	3.53655e-07
3664.35	8.90417e-08
3672.91	1.27123e-07
3681.47	1.20552e-07
3690.02	2.57362e-07
3698.58	2.01001e-07
3707.14	2.27493e-07
3715.7	2.24912e-07
3724.25	3.6492e-07
3732.81	4.21852e-07
3741.37	8.05738e-07
3749.93	9.05684e-07
3758.49	3.97469e-07
3767.04	4.28199e-07
3775.6	4.10715e-07
3784.16	6.08292e-07
3792.72	6.13807e-07
3801.27	3.81944e-06
3809.83	7.97919e-07
3818.39	8.14527e-07
3826.95	1.07381e-06
3835.5	6.91834e-07
3844.06	6.54779e-07
3852.62	7.47013e-07
3861.18	3.72613e-07
3869.73	6.49224e-07
3878.29	2.88366e-07
3886.85	2.86143e-07
3895.41	3.66756e-07
3903.96	1.11411e-06
3912.52	5.59991e-07
3921.08	6.53228e-07
3929.64	6.90862e-07
3938.2	7.18263e-07
3946.75	6.43142e-07
3955.31	7.72245e-07
3963.87	7.81646e-07
3972.43	1.01417e-06
