Infrared Spectrum: 2-Propanone
Formula: C H3 C O C H3
CAS: 67-64-1
State: gas
Melting point: -95.35 C
Boiling point: 56.2 C
Class: IUPAC A
Instrument: IFS66V (Bruker)
Instrument parameters: KBr Beam splitter; MCT Detector; Multipass cell
Sampling: 1 L/min Flow
Resolution: 1.9290
Temperature: 23 C
Pressure: 101.3 kPa
Origin: NIST, Anayltical Chemistry Division, 301-975-3108
cm-1	(micromol/mol)-1m-1 (base 10)
574.687	3.53458e-07
583.365	1.68615e-07
592.043	2.5647e-07
600.721	9.44477e-08
609.4	1.59159e-09
618.078	-1.14685e-08
626.756	-2.4123e-08
635.434	-9.67396e-08
644.112	-2.80675e-08
652.79	-6.80564e-09
661.469	-6.87021e-08
670.147	-3.56598e-08
678.825	-5.70098e-08
687.503	-5.10064e-08
696.181	-2.98191e-08
704.859	4.74812e-08
713.537	8.46662e-08
722.216	2.3872e-07
730.894	4.87533e-07
739.572	9.58955e-07
748.25	1.96898e-06
756.928	3.72866e-06
765.606	5.47216e-06
774.285	5.88807e-06
782.963	5.7878e-06
791.641	5.4617e-06
800.319	2.91811e-06
808.997	1.0539e-06
817.675	4.2021e-07
826.353	4.11223e-07
835.032	5.00969e-07
843.71	7.60778e-07
852.388	1.32513e-06
861.066	3.06663e-06
869.744	7.81216e-06
878.422	1.36374e-05
887.101	1.97498e-05
895.779	2.33682e-05
904.457	2.22569e-05
913.135	1.84885e-05
921.813	1.27215e-05
930.491	8.71066e-06
939.169	5.68129e-06
947.848	4.14706e-06
956.526	3.7361e-06
965.204	3.47038e-06
973.882	3.24151e-06
982.56	3.02351e-06
991.238	2.59661e-06
999.917	2.17057e-06
1008.59	1.77819e-06
1017.27	1.68255e-06
1025.95	1.60889e-06
1034.63	1.78351e-06
1043.31	2.1475e-06
1051.99	2.42706e-06
1060.66	2.91766e-06
1069.34	4.06596e-06
1078.02	5.67318e-06
1086.7	7.83857e-06
1095.38	1.38636e-05
1104.05	1.00224e-05
1112.73	1.04695e-05
1121.41	7.68428e-06
1130.09	4.72693e-06
1138.77	3.12106e-06
1147.45	2.442e-06
1156.12	2.51405e-06
1164.8	3.79387e-06
1173.48	7.77589e-06
1182.16	1.99393e-05
1190.84	7.27919e-05
1199.51	0.000197509
1208.19	0.000252324
1216.87	0.000374513
1225.55	0.000261828
1234.23	0.00021629
1242.9	4.5993e-05
1251.58	8.80591e-06
1260.26	4.03388e-06
1268.94	3.01563e-06
1277.62	2.9849e-06
1286.3	3.63418e-06
1294.97	4.72506e-06
1303.65	6.97567e-06
1312.33	1.08449e-05
1321.01	1.81194e-05
1329.69	3.49509e-05
1338.36	8.12325e-05
1347.04	0.000177643
1355.72	0.000241149
1364.4	0.000308878
1373.08	0.000286516
1381.76	0.000209936
1390.43	8.9473e-05
1399.11	5.45565e-05
1407.79	5.40494e-05
1416.47	6.59545e-05
1425.15	7.58555e-05
1433.82	8.24169e-05
1442.5	7.90452e-05
1451.18	6.93927e-05
1459.86	5.465e-05
1468.54	4.19757e-05
1477.22	3.34481e-05
1485.89	2.26628e-05
1494.57	1.83294e-05
1503.25	1.67787e-05
1511.93	1.64044e-05
1520.61	1.73505e-05
1529.28	1.62886e-05
1537.96	1.64145e-05
1546.64	1.50699e-05
1555.32	1.43293e-05
1564	1.29587e-05
1572.67	1.08337e-05
1581.35	8.85971e-06
1590.03	7.39779e-06
1598.71	5.71812e-06
1607.39	4.46018e-06
1616.07	4.57713e-06
1624.74	3.46635e-06
1633.42	3.27623e-06
1642.1	3.74858e-06
1650.78	4.95026e-06
1659.46	5.9034e-06
1668.13	8.37455e-06
1676.81	1.17318e-05
1685.49	1.84265e-05
1694.17	3.09199e-05
1702.85	7.89534e-05
1711.53	0.000198192
1720.2	0.000332897
1728.88	0.000398761
1737.56	0.000513559
1746.24	0.000454314
1754.92	0.000349946
1763.59	0.000233342
1772.27	0.000136116
1780.95	7.88868e-05
1789.63	5.59746e-05
1798.31	3.53989e-05
1806.98	2.18314e-05
1815.66	1.26182e-05
1824.34	7.99937e-06
1833.02	5.46441e-06
1841.7	4.29591e-06
1850.38	2.78515e-06
1859.05	2.00841e-06
1867.73	1.72586e-06
1876.41	1.3447e-06
1885.09	1.14011e-06
1893.77	8.9769e-07
1902.44	7.34759e-07
1911.12	5.10547e-07
1919.8	3.72969e-07
1928.48	3.5514e-07
1937.16	3.91455e-07
1945.84	4.6875e-07
1954.51	6.14593e-07
1963.19	8.12035e-07
1971.87	1.02196e-06
1980.55	1.13913e-06
1989.23	1.05477e-06
1997.9	8.8062e-07
2006.58	6.04865e-07
2015.26	2.36253e-07
2023.94	1.49981e-07
2032.62	1.45095e-07
2041.3	1.79812e-07
2049.97	2.18633e-07
2058.65	3.1975e-07
2067.33	4.73667e-07
2076.01	7.97267e-07
2084.69	1.44016e-06
2093.36	2.38069e-06
2102.04	3.08866e-06
2110.72	4.13143e-06
2119.4	5.32533e-06
2128.08	5.70287e-06
2136.75	5.5741e-06
2145.43	5.47198e-06
2154.11	3.90754e-06
2162.79	2.08601e-06
2171.47	9.75985e-07
2180.15	6.93646e-07
2188.82	5.4119e-07
2197.5	5.81872e-07
2206.18	6.49326e-07
2214.86	9.02572e-07
2223.54	1.20747e-06
2232.21	1.74027e-06
2240.89	2.07379e-06
2249.57	2.09638e-06
2258.25	2.24779e-06
2266.93	1.826e-06
2275.61	1.37272e-06
2284.28	1.01705e-06
2292.96	8.3542e-07
2301.64	7.07104e-07
2310.32	6.96773e-07
2319	7.48556e-07
2327.67	8.11218e-07
2336.35	7.61481e-07
2345.03	6.40466e-07
2353.71	5.5568e-07
2362.39	5.54685e-07
2371.06	3.61553e-07
2379.74	1.76261e-07
2388.42	1.43755e-07
2397.1	2.46137e-07
2405.78	4.80349e-07
2414.46	7.31552e-07
2423.13	9.47876e-07
2431.81	1.00063e-06
2440.49	9.76476e-07
2449.17	1.03131e-06
2457.85	3.83258e-07
2466.52	2.87144e-07
2475.2	2.77705e-07
2483.88	3.79058e-07
2492.56	4.61518e-07
2501.24	5.41455e-07
2509.92	6.3031e-07
2518.59	6.03354e-07
2527.27	6.64354e-07
2535.95	8.42283e-07
2544.63	1.18816e-06
2553.31	1.85616e-06
2561.98	2.52296e-06
2570.66	2.7704e-06
2579.34	2.51536e-06
2588.02	2.48956e-06
2596.7	1.24184e-06
2605.38	5.67506e-07
2614.05	4.61939e-07
2622.73	4.58565e-07
2631.41	5.20879e-07
2640.09	5.87194e-07
2648.77	5.65987e-07
2657.44	5.43418e-07
2666.12	4.3221e-07
2674.8	3.11772e-07
2683.48	3.281e-07
2692.16	3.6215e-07
2700.83	3.8179e-07
2709.51	5.24092e-07
2718.19	5.39878e-07
2726.87	4.48676e-07
2735.55	4.53989e-07
2744.23	4.94693e-07
2752.9	6.28905e-07
2761.58	9.41706e-07
2770.26	1.43271e-06
2778.94	2.15329e-06
2787.62	2.52759e-06
2796.29	2.97907e-06
2804.97	3.04444e-06
2813.65	3.08417e-06
2822.33	3.48248e-06
2831.01	4.77194e-06
2839.69	6.76152e-06
2848.36	8.0949e-06
2857.04	9.08919e-06
2865.72	9.71645e-06
2874.4	8.98208e-06
2883.08	8.49645e-06
2891.75	9.41675e-06
2900.43	1.23686e-05
2909.11	1.94554e-05
2917.79	3.06863e-05
2926.47	3.68693e-05
2935.14	3.9197e-05
2943.82	4.85909e-05
2952.5	4.66319e-05
2961.18	3.90687e-05
2969.86	0.00011675
2978.54	3.80399e-05
2987.21	4.46683e-05
2995.89	5.1951e-05
3004.57	5.81633e-05
3013.25	5.73692e-05
3021.93	5.61307e-05
3030.6	5.4331e-05
3039.28	3.4605e-05
3047.96	2.40636e-05
3056.64	2.16761e-05
3065.32	2.05574e-05
3074	1.95817e-05
3082.67	1.76207e-05
3091.35	1.50166e-05
3100.03	1.14459e-05
3108.71	8.34591e-06
3117.39	5.60244e-06
3126.06	3.81318e-06
3134.74	2.79609e-06
3143.42	2.25968e-06
3152.1	2.03543e-06
3160.78	1.81175e-06
3169.46	1.69718e-06
3178.13	1.54837e-06
3186.81	1.29697e-06
3195.49	1.10471e-06
3204.17	9.06789e-07
3212.85	7.95824e-07
3221.52	7.01709e-07
3230.2	6.52807e-07
3238.88	6.10243e-07
3247.56	5.26863e-07
3256.24	5.07975e-07
3264.91	4.69841e-07
3273.59	4.50534e-07
3282.27	4.61475e-07
3290.95	4.76548e-07
3299.63	4.90043e-07
3308.31	4.78688e-07
3316.98	4.47826e-07
3325.66	3.95451e-07
3334.34	3.11581e-07
3343.02	2.65457e-07
3351.7	2.51763e-07
3360.37	2.74926e-07
3369.05	3.23026e-07
3377.73	5.23769e-07
3386.41	6.31119e-07
3395.09	6.2573e-07
3403.77	7.1516e-07
3412.44	9.62484e-07
3421.12	1.99427e-06
3429.8	4.37536e-06
3438.48	7.45137e-06
3447.16	9.72197e-06
3455.83	1.17227e-05
3464.51	1.11582e-05
3473.19	8.9249e-06
3481.87	5.82264e-06
3490.55	3.56937e-06
3499.22	2.42368e-06
3507.9	1.48957e-06
3516.58	7.73956e-07
3525.26	4.83698e-07
3533.94	2.07057e-07
3542.62	1.36786e-07
3551.29	1.17406e-07
3559.97	9.02577e-08
3568.65	2.234e-07
3577.33	-4.32103e-08
3586.01	1.76073e-07
3594.68	4.89264e-08
3603.36	-4.88118e-09
3612.04	2.52903e-07
3620.72	2.5084e-07
3629.4	1.03502e-06
3638.08	1.08656e-07
3646.75	4.97109e-07
3655.43	4.47538e-07
3664.11	1.0595e-07
3672.79	2.0114e-07
3681.47	1.71314e-07
3690.14	4.64828e-07
3698.82	2.25263e-07
3707.5	2.54217e-07
3716.18	2.79923e-07
3724.86	4.27226e-07
3733.54	6.11153e-07
3742.21	4.67087e-07
3750.89	9.57757e-07
3759.57	7.37358e-07
3768.25	5.00155e-07
3776.93	4.94232e-07
3785.6	6.54201e-07
3794.28	6.36731e-07
3802.96	1.05788e-06
3811.64	7.41426e-07
3820.32	1.28492e-06
3828.99	6.85683e-07
3837.67	1.8531e-06
3846.35	4.558e-07
3855.03	1.64918e-06
3863.71	5.4007e-07
3872.39	3.72118e-07
3881.06	5.74851e-07
3889.74	4.00392e-07
3898.42	6.38421e-07
3907.1	5.36737e-07
3915.78	6.4005e-07
3924.45	7.55808e-07
3933.13	7.58062e-07
3941.81	7.10926e-07
3950.49	7.23537e-07
3959.17	7.24897e-07
3967.85	8.4852e-07
