Infrared Spectrum: 2-Propanone
Formula: C H3 C O C H3
CAS: 67-64-1
State: gas
Melting point: -95.35 C
Boiling point: 56.2 C
Class: IUPAC A
Instrument: IFS66V (Bruker)
Instrument parameters: KBr Beam splitter; MCT Detector; Multipass cell
Sampling: 1 L/min Flow
Resolution: 0.2410
Temperature: 23 C
Pressure: 101.3 kPa
Origin: NIST, Anayltical Chemistry Division, 301-975-3108
cm-1	(micromol/mol)-1m-1 (base 10)
575.048	-4.6223e-07
583.606	4.11952e-07
592.163	1.52302e-08
600.721	1.27574e-07
609.279	2.40471e-07
617.836	-5.10928e-08
626.394	2.01794e-07
634.951	-2.97264e-07
643.509	-2.36962e-07
652.067	1.26815e-07
660.624	1.3574e-08
669.182	-1.30611e-07
677.74	6.96662e-08
686.297	7.60052e-09
694.855	-1.06064e-07
703.412	-3.70207e-07
711.97	1.27709e-08
720.528	2.35475e-07
729.085	5.12916e-07
737.643	8.21541e-07
746.201	1.56096e-06
754.758	3.3743e-06
763.316	5.25801e-06
771.873	6.03574e-06
780.431	6.08957e-06
788.989	5.84695e-06
797.546	3.8799e-06
806.104	1.21254e-06
814.662	5.93947e-07
823.219	4.17538e-07
831.777	4.75357e-07
840.334	5.77647e-07
848.892	1.03153e-06
857.45	2.22889e-06
866.007	5.32891e-06
874.565	1.20405e-05
883.123	1.47437e-05
891.68	1.85795e-05
900.238	2.34773e-05
908.795	2.08713e-05
917.353	1.54084e-05
925.911	1.07838e-05
934.468	7.17278e-06
943.026	4.67815e-06
951.584	3.80488e-06
960.141	3.76885e-06
968.699	3.56272e-06
977.256	3.06587e-06
985.814	2.89907e-06
994.372	2.23681e-06
1002.93	1.90618e-06
1011.49	1.80754e-06
1020.04	1.85403e-06
1028.6	1.67637e-06
1037.16	1.91965e-06
1045.72	2.27211e-06
1054.28	2.53814e-06
1062.83	3.0975e-06
1071.39	4.40515e-06
1079.95	5.86362e-06
1088.51	9.60006e-06
1097.06	9.53387e-06
1105.62	1.02892e-05
1114.18	1.01519e-05
1122.74	7.10093e-06
1131.29	4.42158e-06
1139.85	2.99358e-06
1148.41	2.46316e-06
1156.97	2.55092e-06
1165.52	3.96707e-06
1174.08	8.33193e-06
1182.64	2.11054e-05
1191.2	7.67454e-05
1199.75	0.000201148
1208.31	0.000252669
1216.87	0.000383548
1225.43	0.000260762
1233.99	0.000222871
1242.54	4.93377e-05
1251.1	9.3468e-06
1259.66	4.14581e-06
1268.22	2.98046e-06
1276.77	2.9506e-06
1285.33	3.45038e-06
1293.89	4.58385e-06
1302.45	6.58129e-06
1311	9.98966e-06
1319.56	1.64395e-05
1328.12	3.05825e-05
1336.68	6.8512e-05
1345.23	0.000155061
1353.79	0.000238951
1362.35	0.000261093
1370.91	0.00029226
1379.46	0.000242134
1388.02	0.000114077
1396.58	5.83441e-05
1405.14	5.24287e-05
1413.7	6.18979e-05
1422.25	7.3968e-05
1430.81	7.35894e-05
1439.37	8.0318e-05
1447.93	8.06267e-05
1456.48	6.43266e-05
1465.04	4.79512e-05
1473.6	4.17043e-05
1482.16	2.57368e-05
1490.71	2.06174e-05
1499.27	1.74527e-05
1507.83	1.73564e-05
1516.39	1.63878e-05
1524.94	1.67904e-05
1533.5	1.61942e-05
1542.06	1.86327e-05
1550.62	1.45391e-05
1559.18	1.38286e-05
1567.73	1.19696e-05
1576.29	1.42695e-05
1584.85	8.21278e-06
1593.41	6.73116e-06
1601.96	5.19451e-06
1610.52	4.11623e-06
1619.08	3.45154e-06
1627.64	3.49595e-06
1636.19	3.62458e-06
1644.75	3.99869e-06
1653.31	1.27992e-05
1661.87	6.1916e-06
1670.42	8.75729e-06
1678.98	1.29141e-05
1687.54	1.91296e-05
1696.1	3.86652e-05
1704.65	9.6489e-05
1713.21	0.000228127
1721.77	0.000350489
1730.33	0.00039157
1738.89	0.000518249
1747.44	0.000438437
1756	0.000330873
1764.56	0.000218145
1773.12	0.00013293
1781.67	7.64206e-05
1790.23	5.36378e-05
1798.79	3.44099e-05
1807.35	2.14234e-05
1815.9	1.2455e-05
1824.46	7.82258e-06
1833.02	5.45461e-06
1841.58	4.24891e-06
1850.13	2.88674e-06
1858.69	2.12043e-06
1867.25	1.59942e-06
1875.81	1.36587e-06
1884.36	1.17726e-06
1892.92	8.65183e-07
1901.48	7.77886e-07
1910.04	7.35109e-07
1918.6	4.39893e-07
1927.15	3.81576e-07
1935.71	3.70629e-07
1944.27	3.99967e-07
1952.83	5.37437e-07
1961.38	7.63718e-07
1969.94	9.66066e-07
1978.5	1.12124e-06
1987.06	1.09402e-06
1995.61	1.01478e-06
2004.17	7.11412e-07
2012.73	3.19499e-07
2021.29	1.62309e-07
2029.84	9.64795e-08
2038.4	1.29467e-07
2046.96	1.91004e-07
2055.52	3.05119e-07
2064.08	4.28365e-07
2072.63	6.37962e-07
2081.19	1.16982e-06
2089.75	1.9603e-06
2098.31	2.85901e-06
2106.86	3.82628e-06
2115.42	4.88208e-06
2123.98	5.6719e-06
2132.54	5.71499e-06
2141.09	5.21149e-06
2149.65	4.5719e-06
2158.21	3.06409e-06
2166.77	1.4186e-06
2175.32	8.74209e-07
2183.88	5.86021e-07
2192.44	6.49997e-07
2201	5.53421e-07
2209.55	7.6905e-07
2218.11	9.84518e-07
2226.67	1.43859e-06
2235.23	1.82811e-06
2243.79	2.29843e-06
2252.34	2.21946e-06
2260.9	2.14945e-06
2269.46	1.68558e-06
2278.02	1.2666e-06
2286.57	9.26294e-07
2295.13	8.35577e-07
2303.69	6.5887e-07
2312.25	7.567e-07
2320.8	6.92431e-07
2329.36	6.53222e-07
2337.92	7.21909e-07
2346.48	5.73302e-07
2355.03	4.44393e-07
2363.59	4.08136e-07
2372.15	2.15884e-07
2380.71	2.27523e-07
2389.26	1.79049e-07
2397.82	1.56623e-07
2406.38	4.90947e-07
2414.94	7.56897e-07
2423.5	1.00239e-06
2432.05	9.54891e-07
2440.61	9.90118e-07
2449.17	1.15877e-06
2457.73	3.91521e-07
2466.28	2.79046e-07
2474.84	2.93798e-07
2483.4	4.19667e-07
2491.96	4.47906e-07
2500.51	4.81985e-07
2509.07	6.1414e-07
2517.63	5.95608e-07
2526.19	6.80127e-07
2534.74	7.6505e-07
2543.3	1.16734e-06
2551.86	1.67668e-06
2560.42	2.44649e-06
2568.98	2.65397e-06
2577.53	2.54335e-06
2586.09	2.6137e-06
2594.65	1.47386e-06
2603.21	6.72051e-07
2611.76	3.68831e-07
2620.32	4.39708e-07
2628.88	4.94636e-07
2637.44	5.53735e-07
2645.99	5.52809e-07
2654.55	5.61189e-07
2663.11	4.9136e-07
2671.67	2.90121e-07
2680.22	2.10738e-07
2688.78	3.40035e-07
2697.34	2.93018e-07
2705.9	5.34611e-07
2714.45	6.56091e-07
2723.01	4.50133e-07
2731.57	4.40803e-07
2740.13	4.81265e-07
2748.69	5.54532e-07
2757.24	7.37254e-07
2765.8	1.11753e-06
2774.36	1.82487e-06
2782.92	2.31226e-06
2791.47	2.6347e-06
2800.03	3.08127e-06
2808.59	3.02326e-06
2817.15	3.0873e-06
2825.7	3.71392e-06
2834.26	5.53917e-06
2842.82	7.20827e-06
2851.38	8.51431e-06
2859.93	9.20799e-06
2868.49	9.51809e-06
2877.05	8.80966e-06
2885.61	8.55472e-06
2894.16	9.8089e-06
2902.72	1.38073e-05
2911.28	2.22126e-05
2919.84	3.28249e-05
2928.4	3.76166e-05
2936.95	4.22137e-05
2945.51	4.91198e-05
2954.07	4.5334e-05
2962.63	3.90667e-05
2971.18	9.70837e-05
2979.74	3.78968e-05
2988.3	4.54866e-05
2996.86	5.26661e-05
3005.41	5.81793e-05
3013.97	5.83415e-05
3022.53	5.65459e-05
3031.09	5.34998e-05
3039.64	3.38649e-05
3048.2	2.39088e-05
3056.76	2.16203e-05
3065.32	2.05759e-05
3073.88	1.96546e-05
3082.43	1.77455e-05
3090.99	1.51973e-05
3099.55	1.16044e-05
3108.11	8.40762e-06
3116.66	5.78884e-06
3125.22	3.95045e-06
3133.78	2.86589e-06
3142.34	2.24317e-06
3150.89	2.08747e-06
3159.45	1.8767e-06
3168.01	1.62249e-06
3176.57	1.54538e-06
3185.12	1.28714e-06
3193.68	1.2215e-06
3202.24	8.97471e-07
3210.8	7.97546e-07
3219.35	7.43123e-07
3227.91	5.44035e-07
3236.47	5.97363e-07
3245.03	7.61361e-07
3253.59	6.5238e-07
3262.14	4.48636e-07
3270.7	3.63154e-07
3279.26	3.81587e-07
3287.82	4.43115e-07
3296.37	2.443e-07
3304.93	3.65163e-07
3313.49	3.73188e-07
3322.05	3.69672e-07
3330.6	2.34167e-07
3339.16	4.36328e-07
3347.72	2.52482e-07
3356.28	2.76076e-07
3364.83	4.24803e-07
3373.39	4.01102e-07
3381.95	6.01561e-07
3390.51	6.37341e-07
3399.06	5.61542e-07
3407.62	7.8025e-07
3416.18	1.51991e-06
3424.74	2.75169e-06
3433.3	5.65589e-06
3441.85	8.3109e-06
3450.41	9.74592e-06
3458.97	1.14192e-05
3467.53	1.06124e-05
3476.08	7.86666e-06
3484.64	4.85821e-06
3493.2	3.1211e-06
3501.76	2.32746e-06
3510.31	1.119e-06
3518.87	7.18945e-07
3527.43	3.67294e-07
3535.99	2.78596e-07
3544.54	2.9137e-08
3553.1	1.87144e-08
3561.66	2.8253e-08
3570.22	2.23696e-08
3578.78	-1.93827e-07
3587.33	-3.25594e-10
3595.89	1.06175e-07
3604.45	-5.58848e-08
3613.01	1.6554e-07
3621.56	6.69741e-08
3630.12	2.78912e-07
3638.68	1.23743e-07
3647.24	1.03842e-06
3655.79	4.04787e-07
3664.35	1.11801e-07
3672.91	1.14863e-07
3681.47	9.19148e-08
3690.02	2.51695e-07
3698.58	1.50315e-07
3707.14	1.35266e-07
3715.7	2.44769e-07
3724.25	3.75703e-07
3732.81	3.1965e-07
3741.37	8.97888e-07
3749.93	8.7494e-07
3758.49	3.94382e-07
3767.04	4.90088e-07
3775.6	3.4957e-07
3784.16	5.67882e-07
3792.72	6.60496e-07
3801.27	3.33021e-06
3809.83	8.24786e-07
3818.39	7.76328e-07
3826.95	1.01953e-06
3835.5	6.53856e-07
3844.06	6.7201e-07
3852.62	7.52888e-07
3861.18	3.33498e-07
3869.73	6.45412e-07
3878.29	3.01142e-07
3886.85	3.2231e-07
3895.41	3.47781e-07
3903.96	8.87419e-07
3912.52	5.27697e-07
3921.08	7.1889e-07
3929.64	7.02554e-07
3938.2	6.90221e-07
3946.75	6.29467e-07
3955.31	7.73495e-07
3963.87	8.67622e-07
3972.43	9.76357e-07
