Mass Spectrum: Dibenzofuran
Formula: C12 H8 O
CAS: 132-64-9
Molecular weight: 168
Origin: Japan AIST/NIMC Database- Spectrum MS-NW- 354
m/z	RELATIVE INTENSITY
27	30
37	20
38	50
39	169
50	90
51	119
55	50
56	50
57	50
61	50
62	149
63	309
64	60
65	30
69	449
70	219
71	30
74	139
75	149
76	30
84	949
85	40
86	119
87	169
88	109
89	169
90	20
98	40
99	30
101	30
110	30
111	30
113	229
114	229
115	40
137	60
138	90
139	2199
140	369
141	30
165	40
166	70
167	70
168	9999
169	1309
170	99
