Mass Spectrum: Benzenamine, 3,4-dichloro-
Formula: C6 H5 Cl2 N
CAS: 95-76-1
Molecular weight: 161
Origin: NIST Mass Spectrometry Data Center, 1998.
m/z	RELATIVE INTENSITY
14	10
25	20
26	50
27	50
28	300
29	10
31	10
35	100
36	80
37	380
38	330
39	300
40	150
41	520
42	60
43	10
44	440
45	130
47	110
48	60
49	280
50	340
51	210
52	590
53	70
54	80
55	10
59	10
60	200
61	770
62	1290
63	2240
64	610
65	450
66	120
67	30
68	20
70	10
71	70
72	340
73	850
74	430
75	400
76	100
77	30
78	60
79	10
80	510
81	330
83	100
84	140
85	140
86	160
87	120
88	210
89	390
90	2600
91	720
92	40
94	10
95	20
96	70
97	330
98	300
99	2550
100	290
101	800
102	60
103	20
106	10
107	130
108	40
109	170
110	30
111	50
112	20
114	40
116	10
120	20
122	20
123	10
124	160
125	860
126	1430
127	370
128	450
129	30
131	10
133	460
134	600
135	340
136	380
137	80
138	60
139	10
144	30
145	10
146	20
147	10
159	10
161	9999
162	870
163	6679
164	490
165	1110
166	70
