Mass Spectrum: Phenol, 3-nitro-
Formula: C6 H5 N O3
CAS: 554-84-7
Molecular weight: 139
Origin: NIST Mass Spectrometry Data Center, 1998.
m/z	RELATIVE INTENSITY
14	10
25	10
26	110
27	250
29	140
30	640
31	50
32	10
36	40
37	400
38	1070
39	5289
40	280
41	60
42	100
43	70
44	10
46	240
48	10
49	140
50	700
51	550
52	290
53	1920
54	150
55	280
56	10
60	70
61	490
62	1040
63	2580
64	1140
65	9079
66	810
67	130
68	100
69	110
73	90
74	400
75	290
76	80
77	30
78	20
79	50
80	70
81	2320
82	140
83	80
90	20
91	50
92	340
93	5239
94	420
95	20
107	10
108	10
109	340
110	40
111	10
122	10
123	130
139	9999
140	710
141	80
