Mass Spectrum: Lumichrome
Formula: C12 H10 N4 O2
CAS: 1086-80-2
Molecular weight: 242
Origin: Japan AIST/NIMC Database- Spectrum MS-NW-2006
m/z	RELATIVE INTENSITY
14	10
15	50
16	10
18	10
26	70
27	289
28	369
29	30
32	20
36	10
37	60
38	139
39	509
40	90
41	159
42	60
43	199
44	189
45	50
49	20
50	219
51	449
52	309
53	159
54	40
55	50
56	20
57	40
58	90
59	20
60	60
61	30
62	99
63	269
64	229
65	259
66	99
67	80
68	20
69	20
70	179
71	60
72	50
73	30
74	50
75	159
76	199
77	449
78	209
79	209
80	30
81	10
82	10
83	20
84	109
85	249
86	40
87	50
88	80
89	269
90	199
91	369
92	90
93	30
94	10
95	10
97	10
98	20
99	229
100	50
101	139
102	329
103	339
104	199
105	60
106	20
107	10
112	30
113	10
114	129
115	119
116	489
117	259
118	179
119	80
120	30
121	119
126	20
127	40
128	189
129	309
130	589
131	169
132	20
133	10
134	20
141	109
142	109
143	299
144	289
145	139
146	30
149	10
153	70
154	30
155	40
156	3299
157	409
158	30
159	10
160	30
161	60
162	10
163	10
164	10
168	30
169	109
170	1819
171	6029
172	829
173	70
180	10
181	70
182	10
183	60
184	30
185	20
186	20
187	10
195	30
196	40
197	99
198	309
199	499
200	80
204	40
205	339
206	30
209	279
210	40
213	10
214	50
215	10
222	10
223	99
224	709
225	109
226	10
227	149
228	30
240	30
241	139
242	9999
243	1459
244	139
245	10
