Infrared Spectrum: Benzoic acid
Formula: C 7 H 6 O 2
CAS: 65-85-0
State: solid
Instrument: Bruker Tensor 37 FTIR
Resolution: 0.96450084
Origin: Pacific Northwest National Laboratory Under IARPA Contract
1/cm	Reflectance
7498.99	0.660201
7481.63	0.641085
7464.27	0.652129
7446.91	0.640955
7429.55	0.621009
7412.19	0.619797
7394.84	0.614853
7377.48	0.613299
7360.12	0.614283
7342.76	0.604264
7325.4	0.592769
7308.04	0.58833
7290.68	0.588819
7273.32	0.581867
7255.96	0.57248
7238.6	0.56765
7221.24	0.574907
7203.88	0.583416
7186.52	0.57106
7169.16	0.576163
7151.8	0.576451
7134.44	0.577243
7117.08	0.570645
7099.72	0.56694
7082.36	0.561109
7065	0.556317
7047.64	0.555671
7030.28	0.550772
7012.92	0.542943
6995.56	0.530397
6978.2	0.517467
6960.84	0.504724
6943.48	0.491464
6926.12	0.474454
6908.76	0.44882
6891.4	0.430993
6874.04	0.40505
6856.68	0.377083
6839.32	0.313567
6821.96	0.279992
6804.6	0.24773
6787.24	0.229427
6769.88	0.115805
6752.52	0.112094
6735.16	0.119906
6717.8	0.130621
6700.44	0.167993
6683.08	0.1761
6665.72	0.188906
6648.36	0.189123
6631	0.190258
6613.64	0.180837
6596.28	0.178048
6578.92	0.178217
6561.56	0.176636
6544.2	0.168216
6526.85	0.163477
6509.49	0.158256
6492.13	0.151185
6474.77	0.144505
6457.41	0.140261
6440.05	0.133137
6422.69	0.127974
6405.33	0.12382
6387.97	0.120941
6370.61	0.117586
6353.25	0.116121
6335.89	0.115043
6318.53	0.112956
6301.17	0.11129
6283.81	0.10967
6266.45	0.107428
6249.09	0.105739
6231.73	0.104425
6214.37	0.103487
6197.01	0.104462
6179.65	0.105079
6162.29	0.104382
6144.93	0.0990504
6127.57	0.0934585
6110.21	0.0905571
6092.85	0.068493
6075.49	0.0737738
6058.13	0.0725958
6040.77	0.0750399
6023.41	0.0804162
6006.05	0.0787791
5988.69	0.0815865
5971.33	0.0810825
5953.97	0.0738267
5936.61	0.0702546
5919.25	0.0715294
5901.89	0.0709158
5884.53	0.0665723
5867.17	0.0654797
5849.81	0.0591682
5832.45	0.0626729
5815.09	0.0602215
5797.73	0.0547812
5780.37	0.0487598
5763.01	0.0581957
5745.65	0.0579049
5728.29	0.0581221
5710.93	0.0567773
5693.57	0.0563412
5676.21	0.0550726
5658.86	0.0556786
5641.5	0.055116
5624.14	0.0541047
5606.78	0.0517529
5589.42	0.0513186
5572.06	0.0520432
5554.7	0.0519056
5537.34	0.0511696
5519.98	0.0497508
5502.62	0.0479798
5485.26	0.0459396
5467.9	0.0442643
5450.54	0.0424902
5433.18	0.0405921
5415.82	0.0387252
5398.46	0.0378694
5381.1	0.0371201
5363.74	0.0368529
5346.38	0.0361763
5329.02	0.0360473
5311.66	0.0356376
5294.3	0.0356672
5276.94	0.0367821
5259.58	0.0369656
5242.22	0.0371851
5224.86	0.0371506
5207.5	0.036878
5190.14	0.0375259
5172.78	0.0377255
5155.42	0.0391404
5138.06	0.0388927
5120.7	0.0386222
5103.34	0.0380466
5085.98	0.0389309
5068.62	0.0394871
5051.26	0.0390697
5033.9	0.0390882
5016.54	0.040309
4999.18	0.0402967
4981.82	0.0402427
4964.46	0.0400398
4947.1	0.0401059
4929.74	0.0399473
4912.38	0.0398155
4895.02	0.0395345
4877.66	0.0394554
4860.3	0.0395014
4842.94	0.0392354
4825.58	0.039498
4808.22	0.0389663
4790.86	0.0388202
4773.51	0.0389683
4756.15	0.03835
4738.79	0.0372307
4721.43	0.0368104
4704.07	0.0364224
4686.71	0.036013
4669.35	0.0352208
4651.99	0.0336991
4634.63	0.0323425
4617.27	0.0271289
4599.91	0.0494735
4582.55	0.0495077
4565.19	0.0402132
4547.83	0.0388228
4530.47	0.0381888
4513.11	0.0366914
4495.75	0.0366878
4478.39	0.0286053
4461.03	0.0398949
4443.67	0.0354533
4426.31	0.0298005
4408.95	0.038988
4391.59	0.0515152
4374.23	0.0418017
4356.87	0.038543
4339.51	0.0384725
4322.15	0.0370182
4304.79	0.0381704
4287.43	0.0336002
4270.07	0.034866
4252.71	0.0347824
4235.35	0.0314156
4217.99	0.0376689
4200.63	0.0382605
4183.27	0.0369471
4165.91	0.0341338
4148.55	0.0362859
4131.19	0.0355621
4113.83	0.0273657
4096.47	0.0426613
4079.11	0.0450721
4061.75	0.0480541
4044.39	0.658819
4027.03	0.650511
4009.67	0.652073
3992.31	0.633575
3974.95	0.620637
3957.59	0.619104
3940.23	0.608805
3922.87	0.620269
3905.52	0.603198
3888.16	0.596815
3870.8	0.598541
3853.44	0.587757
3836.08	0.587361
3818.72	0.580527
3801.36	0.572416
3784	0.565474
3766.64	0.573659
3749.28	0.581795
3731.92	0.571855
3714.56	0.573877
3697.2	0.579792
3679.84	0.57203
3662.48	0.56934
3645.12	0.565367
3627.76	0.55448
3610.4	0.553709
3593.04	0.555428
3575.68	0.547648
3558.32	0.537454
3540.96	0.523183
3523.6	0.510753
3506.24	0.496501
3488.88	0.482513
3471.52	0.465712
3454.16	0.43571
3436.8	0.419846
3419.44	0.387988
3402.08	0.3635
3384.72	0.284374
3367.36	0.253724
3350	0.230628
3332.64	0.206083
3315.28	0.0998862
3297.92	0.109087
3280.56	0.11753
3263.2	0.140576
3245.84	0.164608
3228.48	0.182105
3211.12	0.185841
3193.76	0.185762
3176.4	0.182256
3159.04	0.180542
3141.68	0.175164
3124.32	0.175745
3106.96	0.171851
3089.6	0.163786
3072.24	0.157912
3054.88	0.153107
3037.52	0.145528
3020.17	0.140283
3002.81	0.136736
2985.45	0.13064
2968.09	0.124293
2950.73	0.12087
2933.37	0.116691
2916.01	0.113986
2898.65	0.114161
2881.29	0.112541
2863.93	0.110624
2846.57	0.108538
2829.21	0.107327
2811.85	0.105182
2794.49	0.103703
2777.13	0.102567
2759.77	0.101979
2742.41	0.103461
2725.05	0.102792
2707.69	0.102865
2690.33	0.095134
2672.97	0.0916944
2655.61	0.0867518
2638.25	0.062841
2620.89	0.0699007
2603.53	0.0759723
2586.17	0.0718386
2568.81	0.0805068
2551.45	0.0794941
2534.09	0.0805546
2516.73	0.0789803
2499.37	0.072666
2482.01	0.0689766
2464.65	0.0706055
2447.29	0.0688321
2429.93	0.0663862
2412.57	0.0633717
2395.21	0.0596965
2377.85	0.0633297
2360.49	0.0620283
2343.13	0.0516888
2325.77	0.0529003
2308.41	0.0578491
2291.05	0.0578324
2273.69	0.0576792
2256.33	0.0568148
2238.97	0.0561635
2221.61	0.0559912
2204.25	0.0557845
2186.89	0.0550477
2169.53	0.0544449
2152.18	0.0519302
2134.82	0.0511883
2117.46	0.0526915
2100.1	0.0524143
2082.74	0.0512121
2065.38	0.0501165
2048.02	0.0482137
2030.66	0.0463137
2013.3	0.0448345
1995.94	0.043308
1978.58	0.0409646
1961.22	0.0392862
1943.86	0.03838
1926.5	0.0383013
1909.14	0.0374688
1891.78	0.0374425
1874.42	0.0369573
1857.06	0.0369422
1839.7	0.036429
1822.34	0.037651
1804.98	0.038318
1787.62	0.0386458
1770.26	0.0385526
1752.9	0.0379299
1735.54	0.0387345
1718.18	0.0394618
1700.82	0.040107
1683.46	0.0401048
1666.1	0.0389173
1648.74	0.0386862
1631.38	0.0400102
1614.02	0.040299
1596.66	0.0400508
1579.3	0.0407233
1561.94	0.041416
1544.58	0.0411465
1527.22	0.0414061
1509.86	0.0412376
1492.5	0.0412653
1475.14	0.0412431
1457.78	0.0410051
1440.42	0.0409061
1423.06	0.0405451
1405.7	0.0404018
1388.34	0.0405607
1370.98	0.0406141
1353.62	0.0400907
1336.26	0.0405728
1318.9	0.0400848
1301.54	0.0395273
1284.19	0.0384672
1266.83	0.0378833
1249.47	0.0378757
1232.11	0.0372356
1214.75	0.0361993
1197.39	0.0349398
1180.03	0.0328977
1162.67	0.0256089
1145.31	0.0725081
1127.95	0.047655
1110.59	0.0400382
1093.23	0.0377948
1075.87	0.039437
1058.51	0.0387586
1041.15	0.0383706
1023.79	0.0369854
1006.43	0.0418428
989.068	0.0360494
971.709	0.0287089
954.349	0.030774
936.989	0.0506501
919.629	0.0435518
902.269	0.0406505
884.91	0.0409046
867.55	0.0363696
850.19	0.0379616
832.83	0.0388422
815.47	0.0351167
798.111	0.0364497
780.751	0.0317626
763.391	0.0428101
746.031	0.0404004
728.671	0.0378032
711.312	0.0351771
693.952	0.038393
676.592	0.0367673
659.232	0.0311962
641.872	0.0443698
624.513	0.0489838
607.153	0.0484338
