Mass Spectrum: 2-Propenoic acid, 3-(4-hydroxy-3-methoxyphenyl)-
Formula: C10 H10 O4
CAS: 1135-24-6
Molecular weight: 194
Origin: Japan AIST/NIMC Database- Spectrum MS-NW-2343
m/z	RELATIVE INTENSITY
14	20
15	189
16	20
17	169
18	849
20	10
26	80
27	239
28	289
29	169
30	10
31	70
32	50
37	60
38	189
39	559
40	70
41	299
42	30
43	199
44	219
45	219
46	10
47	10
49	50
50	439
51	1109
52	519
53	419
54	60
55	639
56	20
57	30
59	20
60	20
61	109
62	259
63	559
64	109
65	379
66	159
67	509
68	60
69	449
70	20
71	50
73	40
74	119
75	99
76	129
77	1259
78	619
79	329
80	60
81	209
82	30
83	109
84	20
85	30
86	30
87	50
88	70
89	759
90	99
91	249
92	50
93	119
94	99
95	649
96	50
97	70
98	20
99	10
101	20
102	30
103	80
104	30
105	859
106	259
107	759
108	119
109	279
110	40
111	30
116	10
117	479
118	159
119	99
120	50
121	70
122	50
123	609
124	80
125	40
129	10
130	20
131	30
132	30
133	1929
134	599
135	319
136	40
137	139
138	20
140	30
145	529
146	80
147	99
148	429
149	389
150	299
151	639
152	80
153	30
158	10
159	10
161	429
162	70
163	109
164	20
165	50
166	80
167	10
168	10
175	20
176	50
177	839
178	139
179	1969
180	199
181	30
191	10
192	40
193	559
194	9999
195	1119
196	149
197	10
