Uv/Vis Spectrum: 2,4-Thiazolidinedione
Formula: C3H3NO2S
CAS: 2295-31-0
Melting point: 128
Boiling point: 179(19)
Instrument: Spectrophotometer SF-4
Origin: INSTITUTE OF ENERGY PROBLEMS OF CHEMICAL PHYSICS, RAS
Wavelength (nm)	Logarithm epsilon
211.237	3.61784
211.799	3.60419
212.361	3.59054
212.922	3.57689
214.194	3.55113
214.548	3.5465
214.901	3.54187
215.255	3.53723
217.976	3.50816
219.413	3.49467
220.491	3.48567
221.456	3.47801
222.553	3.46857
229.696	3.40532
230.576	3.39335
231.47	3.38135
232.374	3.3693
233.283	3.35719
235.558	3.32579
235.828	3.31935
236.12	3.31291
236.424	3.30647
