Mass Spectrum: Citric acid
Formula: C6 H8 O7
CAS: 77-92-9
Molecular weight: 192
Origin: Japan AIST/NIMC Database- Spectrum MS-NW-9320
m/z	RELATIVE INTENSITY
12	20
13	30
14	209
15	659
16	70
17	20
18	99
25	30
26	139
27	449
28	1259
29	689
30	40
31	469
32	20
33	20
34	20
36	40
37	139
38	259
39	1239
40	849
41	429
42	5369
43	7609
44	3079
45	1879
46	80
47	50
50	10
51	10
52	10
53	109
54	30
55	259
56	3549
57	409
58	339
59	90
60	3829
61	379
62	20
63	20
65	20
66	60
67	109
68	309
69	1689
70	80
71	159
72	10
73	90
74	119
77	10
79	10
80	10
81	40
82	30
83	70
84	5669
85	419
86	199
87	6179
88	259
89	70
91	10
93	30
94	20
95	30
96	30
97	40
98	20
99	10
100	20
101	20
102	4019
103	199
104	30
105	99
106	10
107	10
108	10
109	20
110	30
111	4019
112	529
113	99
114	10
115	409
116	20
119	10
121	50
122	10
123	20
124	10
125	10
127	10
128	20
129	9999
130	639
131	109
133	99
134	10
135	10
136	10
137	10
138	60
139	349
140	30
141	10
147	1709
148	109
149	20
156	10
157	169
158	10
175	239
176	10
192	10
193	70
