Mass Spectrum: Inosine, 2'-deoxy-
Formula: C10 H12 N4 O4
CAS: 890-38-0
Molecular weight: 252
Origin: Japan AIST/NIMC Database- Spectrum MS-NW-7535
m/z	RELATIVE INTENSITY
12	40
13	60
14	80
15	279
16	20
24	40
25	80
26	189
27	1359
28	469
29	1229
30	129
31	999
32	30
33	20
36	20
37	119
38	769
39	1489
40	369
41	1169
42	699
43	1469
44	1019
45	1229
46	40
47	209
49	30
50	129
51	249
52	269
53	2109
54	4069
55	1099
56	279
57	1059
58	139
59	60
60	149
61	159
62	10
64	70
65	219
66	449
67	179
68	489
69	1239
70	689
71	579
72	129
73	1189
74	119
75	50
76	10
77	20
78	40
79	60
80	429
81	4829
82	1129
83	189
84	70
85	389
86	219
87	80
88	20
89	10
91	20
92	40
93	90
94	60
95	99
96	40
97	779
98	949
99	1129
100	119
101	50
103	80
104	10
105	10
106	10
107	119
108	689
109	689
110	80
111	40
112	50
113	40
114	40
115	189
116	119
117	1989
118	139
119	50
120	40
121	10
122	10
123	60
124	20
125	40
126	10
127	40
128	20
129	40
130	20
132	10
133	70
134	10
135	599
136	9999
137	859
138	70
140	10
141	20
142	10
143	60
144	30
145	40
147	20
149	10
152	10
153	10
154	10
155	10
157	10
159	10
161	10
162	10
163	40
165	10
167	10
171	20
172	10
173	40
174	10
175	10
177	10
178	20
183	20
187	10
195	10
197	60
198	10
201	40
202	20
203	10
214	50
215	20
216	50
233	20
