Mass Spectrum: Kepone
Formula: C10 Cl10 O
CAS: 143-50-0
Molecular weight: 486
Origin: ACCUSTANDARD Chemicals / NIST MS Data Center.
m/z	RELATIVE INTENSITY
17	16
18	56
28	621
29	4
32	118
35	115
36	137
37	36
38	25
40	24
44	12
47	257
48	44
49	78
52	8
59	48
60	160
61	31
63	180
65	53
71	295
72	123
73	103
77	31
78	16
82	72
83	208
84	282
85	92
86	17
87	138
88	16
89	323
90	173
91	32
94	214
95	414
96	281
97	152
98	28
100	20
101	18
104	12
106	321
107	304
108	501
109	108
110	51
111	43
113	38
114	19
117	400
118	580
119	687
120	393
121	242
122	77
123	19
124	197
125	199
126	96
127	28
130	436
131	206
132	266
133	81
134	45
137	8
138	11
141	995
143	1365
145	422
146	62
147	37
153	312
154	342
155	340
156	212
157	118
158	51
159	188
160	328
161	232
162	120
163	34
164	34
165	450
166	261
167	404
168	158
169	149
170	34
171	24
173	17
174	29
176	668
177	1433
178	1348
179	743
180	403
182	72
183	125
184	14
185	47
188	293
189	212
190	450
191	226
192	206
193	77
194	106
195	144
196	183
197	116
198	44
199	18
200	16
201	68
202	27
203	71
204	20
205	29
208	21
209	47
210	44
211	42
212	100
213	296
214	139
215	337
216	1176
217	16
218	1361
219	115
220	694
221	46
222	157
223	44
224	33
225	60
226	28
227	39
228	21
229	22
232	10
235	2184
237	3538
238	410
239	2455
240	195
241	784
242	60
243	120
247	44
248	47
249	87
250	70
251	103
252	51
253	99
254	22
255	51
257	18
259	139
261	223
262	24
263	144
264	24
265	56
266	13
267	21
270	4974
272	9999
273	1107
274	7949
275	704
276	3527
277	256
278	817
279	65
280	123
283	1146
284	260
285	1791
286	281
287	1185
288	169
289	405
290	51
291	77
294	12
296	15
298	18
299	13
301	19
303	14
306	205
308	380
310	332
311	55
312	141
313	39
314	38
315	19
318	446
320	847
322	813
323	87
324	450
325	39
326	197
327	19
328	54
329	10
330	21
331	14
333	15
334	17
336	14
338	14
340	12
341	29
343	42
345	64
346	58
347	52
348	125
349	32
350	89
351	12
352	12
353	1409
354	12
355	3281
356	493
357	3009
358	401
359	1725
360	207
361	545
362	59
363	110
364	16
365	15
369	28
371	56
373	63
375	29
377	14
381	76
383	168
384	23
385	145
386	24
387	93
388	201
389	14
390	477
391	91
392	534
393	14
394	347
395	49
396	148
397	16
398	43
416	123
418	346
420	322
421	48
422	218
423	210
424	135
425	553
426	117
427	696
428	48
429	516
430	71
431	276
432	36
433	86
434	12
435	17
451	489
453	1404
455	1859
456	261
457	1418
458	207
459	723
460	78
461	207
462	26
463	55
464	16
465	13
486	63
488	163
490	221
491	36
492	190
493	30
494	125
495	17
496	56
498	11
