Mass Spectrum: 1,3-Dicyanobenzene
Formula: C8 H4 N2
CAS: 626-17-5
Molecular weight: 128
Origin: NIST Mass Spectrometry Data Center, 1994
m/z	RELATIVE INTENSITY
12	47
14	22
18	3
24	25
25	79
26	413
27	145
28	144
36	106
37	758
38	553
39	368
40	34
48	106
49	410
50	1686
51	890
52	359
53	70
60	71
61	276
62	304
63	347
64	610
65	34
72	46
73	202
74	554
75	1668
76	1038
77	406
78	36
84	28
85	41
86	76
87	72
88	258
89	72
98	56
99	331
100	528
101	2348
102	344
103	18
113	18
124	22
125	13
128	9999
129	914
130	38
