Uv/Vis Spectrum: Isoquinoline
Formula: C9H7N
CAS: 119-65-3
Melting point: 26.47
Boiling point: 243.2
Instrument: n.i.g.
Origin: INSTITUTE OF ENERGY PROBLEMS OF CHEMICAL PHYSICS, RAS
Wavelength (nm)	Logarithm epsilon
262.233	3.45664
262.787	3.45723
263.341	3.45782
263.341	3.45782
264.397	3.4578
265.196	3.45727
265.828	3.45576
266.38	3.45281
266.941	3.44793
267.599	3.44058
267.599	3.44058
267.94	3.43399
268.283	3.42748
268.635	3.42104
269.003	3.41465
269.394	3.4083
269.813	3.40198
270.267	3.39567
270.764	3.38935
271.309	3.383
271.909	3.3766
271.909	3.3766
272.602	3.37186
273.311	3.36706
274.035	3.36219
274.77	3.35723
275.516	3.35217
276.268	3.34699
276.268	3.34699
276.767	3.34035
277.184	3.33286
277.536	3.32465
277.837	3.31589
278.102	3.30675
278.347	3.29741
278.586	3.28808
278.586	3.28808
278.731	3.27935
278.873	3.27045
279.012	3.26136
279.151	3.25209
279.291	3.24261
279.433	3.23294
279.579	3.22307
279.73	3.21298
279.888	3.20266
280.054	3.19212
280.229	3.18134
280.416	3.17031
280.615	3.15903
280.828	3.14748
281.057	3.13565
281.302	3.12354
281.566	3.11112
281.849	3.09839
282.154	3.08533
282.154	3.08533
282.441	3.07528
282.807	3.06252
283.241	3.0479
283.73	3.03236
284.264	3.01697
284.831	3.00299
285.42	2.99179
286.018	2.98486
286.018	2.98486
286.501	2.98497
286.984	2.98508
287.467	2.98519
287.467	2.98519
288.471	2.99363
289.301	2.99614
290.075	2.99362
290.91	2.98683
291.922	2.97639
291.922	2.97639
292.374	2.97689
292.829	2.97729
293.288	2.97764
293.288	2.97764
294.162	2.99175
294.847	2.99881
295.625	3.00132
296.783	3.00155
296.783	3.00155
297.314	2.99597
298.033	2.99375
298.719	2.99343
298.719	2.99343
299.172	3.00104
299.57	3.01115
299.92	3.02323
300.223	3.03678
300.485	3.05132
300.708	3.06642
300.898	3.08171
301.057	3.09685
301.19	3.11156
301.3	3.12558
301.391	3.13869
301.468	3.15069
301.534	3.16142
301.592	3.17071
301.647	3.1784
301.647	3.1784
301.701	3.17929
301.76	3.18014
301.82	3.18093
301.82	3.18093
301.975	3.18062
302.132	3.18023
302.294	3.17982
302.294	3.17982
302.626	3.16437
302.963	3.14836
303.302	3.13173
303.302	3.13173
303.524	3.12474
303.784	3.11376
304.006	3.10636
304.006	3.10636
304.277	3.0923
304.59	3.07727
304.96	3.06179
305.401	3.04648
305.927	3.03207
305.927	3.03207
306.136	3.03246
306.349	3.03277
306.564	3.03302
306.564	3.03302
307.159	3.04949
307.7	3.06564
308.243	3.08105
308.844	3.09531
308.844	3.09531
309.096	3.09697
309.285	3.09742
309.573	3.09705
309.573	3.09705
310.11	3.08341
310.596	3.06946
311.041	3.05484
311.461	3.03919
311.867	3.02204
312.274	3.0029
312.274	3.0029
312.388	3.00047
312.502	2.99804
312.616	2.99558
312.616	2.99558
312.914	2.99566
313.136	2.99697
313.384	3.00136
313.384	3.00136
313.471	3.01775
313.55	3.03355
313.623	3.0488
313.69	3.06353
313.75	3.07779
313.805	3.09159
313.855	3.10498
313.899	3.11796
313.94	3.13057
313.977	3.14283
314.01	3.15475
314.04	3.16635
314.067	3.17765
314.092	3.18866
314.115	3.19939
314.136	3.20987
314.157	3.22009
314.176	3.23008
314.195	3.23984
314.214	3.24938
314.234	3.25872
314.254	3.26785
314.275	3.27679
314.298	3.28554
314.324	3.29412
314.351	3.30252
314.382	3.31076
314.415	3.31885
314.452	3.32677
314.493	3.33455
314.539	3.34219
314.589	3.34968
314.645	3.35704
314.706	3.36428
314.706	3.36428
314.786	3.36659
314.868	3.36888
314.955	3.37111
314.955	3.37111
315.146	3.37119
315.286	3.37091
315.471	3.36954
315.471	3.36954
315.605	3.36185
315.714	3.354
315.802	3.34598
315.873	3.33777
315.93	3.32934
315.976	3.32069
316.016	3.3118
316.052	3.30263
316.052	3.30263
316.12	3.29421
316.188	3.28561
316.253	3.27684
316.317	3.26787
316.38	3.25871
316.441	3.24934
316.501	3.23976
316.559	3.22995
316.615	3.21992
316.67	3.20964
316.724	3.1991
316.776	3.18829
316.826	3.1772
316.875	3.16582
316.923	3.15412
316.969	3.1421
317.013	3.12973
317.056	3.11699
317.097	3.10385
317.137	3.09031
317.175	3.07633
317.212	3.06187
317.247	3.04692
317.28	3.03143
317.312	3.01537
317.343	2.99869
317.372	2.98133
317.399	2.96326
317.425	2.9444
317.449	2.92469
317.472	2.90404
317.493	2.88236
317.493	2.88236
317.662	2.85275
317.879	2.8206
318.129	2.78521
318.397	2.74563
318.397	2.74563
318.92	2.69382
319.289	2.65811
319.67	2.61669
319.67	2.61669
320.148	2.57957
320.809	2.5126
321.144	2.46218
321.144	2.46218
321.735	2.40431
322.328	2.33792
322.978	2.26187
323.742	2.17487
