Mass Spectrum: Guanosine, 2'-deoxy-
Formula: C10 H13 N5 O4
CAS: 961-07-9
Molecular weight: 267
Origin: Japan AIST/NIMC Database- Spectrum MS-NW-2019
m/z	RELATIVE INTENSITY
12	129
13	99
14	119
15	209
16	199
17	1009
18	4009
19	30
24	60
25	80
26	599
27	3479
28	2929
29	759
30	149
31	359
32	80
34	60
36	80
37	129
38	449
39	1269
40	389
41	1169
42	1329
43	3999
44	1309
45	239
47	70
49	40
50	219
51	399
52	849
53	1889
54	2239
55	799
56	309
57	369
58	50
59	30
60	119
61	60
62	30
63	40
64	90
65	179
66	449
67	289
68	809
69	1129
70	499
71	189
72	70
73	289
74	40
75	119
76	60
77	109
78	129
79	389
80	499
81	2319
82	639
83	359
84	149
85	109
86	40
87	50
89	30
91	139
92	129
93	169
94	119
95	209
96	289
97	529
98	859
99	139
100	80
101	50
103	40
104	70
105	109
106	349
107	159
108	1069
109	1999
110	1889
111	149
112	159
113	40
114	30
115	50
116	40
117	249
118	90
119	70
120	80
121	50
122	99
123	139
124	129
125	50
126	30
127	30
128	80
129	70
130	40
131	99
132	50
133	139
134	1129
135	699
136	99
137	40
138	30
139	20
143	50
144	40
145	50
146	40
147	40
148	20
149	40
150	80
151	9999
152	809
153	60
154	30
156	20
157	40
158	70
159	80
160	40
161	30
163	20
164	30
165	50
167	30
169	20
171	30
172	20
173	30
175	80
176	50
177	30
179	40
180	20
183	30
184	80
185	60
186	70
187	99
188	50
189	40
201	129
202	50
203	40
205	30
212	109
213	579
214	99
215	99
225	40
226	40
227	50
231	70
