Mass Spectrum: 3-Pyridinecarboxaldehyde, oxime
Formula: C6 H6 N2 O
CAS: 1193-92-6
Molecular weight: 122
Origin: J.E. WILKINSON S-CUBED, SAN DIEGO, CA.
m/z	RELATIVE INTENSITY
41	511
42	65
43	40
44	404
48	37
49	625
50	4500
51	7045
52	2154
53	596
54	48
55	17
60	8
61	208
62	425
63	1429
64	831
65	458
66	577
67	4546
68	344
69	27
70	2
74	35
75	779
76	1834
77	6292
78	4330
79	1367
80	54
90	2
91	54
92	31
93	271
94	242
95	415
103	304
104	3154
105	602
106	411
107	13
121	177
122	9999
123	781
124	15
